<?xml version="1.0" encoding="UTF-8"?>

<!-- generated on do 03 okt 2019 13:27:16 CEST by Eclipse SUMO netedit Version v1_3_1+0004-4bf5227ace
<configuration xmlns:xsi="http://www.w3.org/2001/XMLSchema-instance" xsi:noNamespaceSchemaLocation="http://sumo.dlr.de/xsd/netconvertConfiguration.xsd">

    <input>
        <sumo-net-file value="/home/pjotr/urban.net.xml"/>
    </input>

    <output>
        <output-file value="/home/pjotr/urban.net.xml"/>
    </output>

    <processing>
        <geometry.max-grade.fix value="false"/>
        <offset.disable-normalization value="true"/>
        <opposites.guess.fix-lengths value="true"/>
        <lefthand value="false"/>
    </processing>

    <junctions>
        <no-turnarounds value="true"/>
        <junctions.corner-detail value="5"/>
        <junctions.limit-turn-speed value="5.5"/>
        <rectangular-lane-cut value="false"/>
    </junctions>

    <pedestrian>
        <walkingareas value="false"/>
    </pedestrian>

    <visualisation>
        <registry-viewport value="true"/>
    </visualisation>

</configuration>
-->

<net version="1.3" junctionCornerDetail="5" limitTurnSpeed="5.50" xmlns:xsi="http://www.w3.org/2001/XMLSchema-instance" xsi:noNamespaceSchemaLocation="http://sumo.dlr.de/xsd/net_file.xsd">

    <location netOffset="0.00,0.00" convBoundary="0.00,0.00,750.00,1300.00" origBoundary="-10000000000.00,-10000000000.00,10000000000.00,10000000000.00" projParameter="!"/>

    <edge id=":gneJ12_0" function="internal">
        <lane id=":gneJ12_0_0" index="0" disallow="pedestrian" speed="6.87" length="10.08" width="3.50" shape="505.25,1288.50 505.64,1291.23 506.81,1293.19 508.77,1294.36 511.50,1294.75"/>
    </edge>
    <edge id=":gneJ12_1" function="internal">
        <lane id=":gneJ12_1_0" index="0" disallow="pedestrian" speed="8.42" length="15.72" width="3.50" shape="501.75,1288.50 502.36,1292.77 504.19,1295.81 507.23,1297.64 511.50,1298.25"/>
    </edge>
    <edge id=":gneJ12_2" function="internal">
        <lane id=":gneJ12_2_0" index="0" disallow="pedestrian" speed="6.87" length="10.08" width="3.50" shape="488.50,1294.75 491.23,1294.36 493.19,1293.19 494.36,1291.23 494.75,1288.50"/>
    </edge>
    <edge id=":gneJ12_3" function="internal">
        <lane id=":gneJ12_3_0" index="0" disallow="pedestrian" speed="16.67" length="23.00" width="3.50" shape="488.50,1294.75 511.50,1294.75"/>
    </edge>
    <edge id=":gneJ12_4" function="internal">
        <lane id=":gneJ12_4_0" index="0" disallow="pedestrian" speed="8.42" length="6.53" width="3.50" shape="488.50,1298.25 492.77,1297.64 494.67,1296.50"/>
    </edge>
    <edge id=":gneJ12_5" function="internal">
        <lane id=":gneJ12_5_0" index="0" disallow="pedestrian" speed="16.67" length="23.00" width="3.50" shape="488.50,1298.25 511.50,1298.25"/>
    </edge>
    <edge id=":gneJ12_6" function="internal">
        <lane id=":gneJ12_6_0" index="0" disallow="pedestrian" speed="8.42" length="9.20" width="3.50" shape="494.67,1296.50 495.81,1295.81 497.64,1292.77 498.25,1288.50"/>
    </edge>
    <edge id=":gneJ13_0" function="internal">
        <lane id=":gneJ13_0_0" index="0" disallow="pedestrian" speed="6.87" length="10.08" width="3.50" shape="494.75,877.50 494.36,874.77 493.19,872.81 491.23,871.64 488.50,871.25"/>
    </edge>
    <edge id=":gneJ13_1" function="internal">
        <lane id=":gneJ13_1_0" index="0" disallow="pedestrian" speed="16.67" length="23.00" width="3.50" shape="494.75,877.50 494.75,854.50"/>
    </edge>
    <edge id=":gneJ13_2" function="internal">
        <lane id=":gneJ13_2_0" index="0" disallow="pedestrian" speed="10.60" length="8.63" width="3.50" shape="494.75,877.50 496.26,871.55 497.72,869.53"/>
    </edge>
    <edge id=":gneJ13_3" function="internal">
        <lane id=":gneJ13_3_0" index="0" disallow="pedestrian" speed="8.42" length="6.53" width="3.50" shape="498.25,877.50 497.64,873.23 496.50,871.33"/>
    </edge>
    <edge id=":gneJ13_4" function="internal">
        <lane id=":gneJ13_4_0" index="0" disallow="pedestrian" speed="16.67" length="23.00" width="3.50" shape="498.25,877.50 498.25,854.50"/>
    </edge>
    <edge id=":gneJ13_5" function="internal">
        <lane id=":gneJ13_5_0" index="0" disallow="pedestrian" speed="9.48" length="5.80" width="3.50" shape="498.25,877.50 499.44,872.79 500.00,872.03"/>
    </edge>
    <edge id=":gneJ13_24" function="internal">
        <lane id=":gneJ13_24_0" index="0" disallow="pedestrian" speed="10.60" length="16.95" width="3.50" shape="497.72,869.53 500.16,866.16 505.55,862.26 511.50,860.75"/>
    </edge>
    <edge id=":gneJ13_25" function="internal">
        <lane id=":gneJ13_25_0" index="0" disallow="pedestrian" speed="8.42" length="9.20" width="3.50" shape="496.50,871.33 495.81,870.19 492.77,868.36 488.50,867.75"/>
    </edge>
    <edge id=":gneJ13_26" function="internal">
        <lane id=":gneJ13_26_0" index="0" disallow="pedestrian" speed="9.48" length="14.43" width="3.50" shape="500.00,872.03 502.53,868.53 506.79,865.44 511.50,864.25"/>
    </edge>
    <edge id=":gneJ13_6" function="internal">
        <lane id=":gneJ13_6_0" index="0" disallow="pedestrian" speed="6.87" length="10.08" width="3.50" shape="511.50,871.25 508.77,871.64 506.81,872.81 505.64,874.77 505.25,877.50"/>
    </edge>
    <edge id=":gneJ13_7" function="internal">
        <lane id=":gneJ13_7_0" index="0" disallow="pedestrian" speed="16.67" length="23.00" width="3.50" shape="511.50,871.25 488.50,871.25"/>
    </edge>
    <edge id=":gneJ13_8" function="internal">
        <lane id=":gneJ13_8_0" index="0" disallow="pedestrian" speed="10.60" length="25.58" width="3.50" shape="511.50,871.25 505.55,869.74 500.16,865.84 496.26,860.45 494.75,854.50"/>
    </edge>
    <edge id=":gneJ13_9" function="internal">
        <lane id=":gneJ13_9_0" index="0" disallow="pedestrian" speed="8.42" length="15.72" width="3.50" shape="511.50,867.75 507.23,868.36 504.19,870.19 502.36,873.23 501.75,877.50"/>
    </edge>
    <edge id=":gneJ13_10" function="internal">
        <lane id=":gneJ13_10_0" index="0" disallow="pedestrian" speed="16.67" length="23.00" width="3.50" shape="511.50,867.75 488.50,867.75"/>
    </edge>
    <edge id=":gneJ13_11" function="internal">
        <lane id=":gneJ13_11_0" index="0" disallow="pedestrian" speed="9.48" length="20.24" width="3.50" shape="511.50,867.75 506.79,866.56 502.53,863.47 499.44,859.21 498.25,854.50"/>
    </edge>
    <edge id=":gneJ13_12" function="internal">
        <lane id=":gneJ13_12_0" index="0" disallow="pedestrian" speed="6.87" length="10.08" width="3.50" shape="505.25,854.50 505.64,857.23 506.81,859.19 508.77,860.36 511.50,860.75"/>
    </edge>
    <edge id=":gneJ13_13" function="internal">
        <lane id=":gneJ13_13_0" index="0" disallow="pedestrian" speed="16.67" length="23.00" width="3.50" shape="505.25,854.50 505.25,877.50"/>
    </edge>
    <edge id=":gneJ13_14" function="internal">
        <lane id=":gneJ13_14_0" index="0" disallow="pedestrian" speed="10.60" length="8.63" width="3.50" shape="505.25,854.50 503.74,860.45 502.28,862.47"/>
    </edge>
    <edge id=":gneJ13_15" function="internal">
        <lane id=":gneJ13_15_0" index="0" disallow="pedestrian" speed="8.42" length="6.53" width="3.50" shape="501.75,854.50 502.36,858.77 503.50,860.67"/>
    </edge>
    <edge id=":gneJ13_16" function="internal">
        <lane id=":gneJ13_16_0" index="0" disallow="pedestrian" speed="16.67" length="23.00" width="3.50" shape="501.75,854.50 501.75,877.50"/>
    </edge>
    <edge id=":gneJ13_17" function="internal">
        <lane id=":gneJ13_17_0" index="0" disallow="pedestrian" speed="9.48" length="5.80" width="3.50" shape="501.75,854.50 500.56,859.21 500.00,859.97"/>
    </edge>
    <edge id=":gneJ13_27" function="internal">
        <lane id=":gneJ13_27_0" index="0" disallow="pedestrian" speed="10.60" length="16.95" width="3.50" shape="502.28,862.47 499.84,865.84 494.45,869.74 488.50,871.25"/>
    </edge>
    <edge id=":gneJ13_28" function="internal">
        <lane id=":gneJ13_28_0" index="0" disallow="pedestrian" speed="8.42" length="9.20" width="3.50" shape="503.50,860.67 504.19,861.81 507.23,863.64 511.50,864.25"/>
    </edge>
    <edge id=":gneJ13_29" function="internal">
        <lane id=":gneJ13_29_0" index="0" disallow="pedestrian" speed="9.48" length="14.43" width="3.50" shape="500.00,859.97 497.47,863.47 493.21,866.56 488.50,867.75"/>
    </edge>
    <edge id=":gneJ13_18" function="internal">
        <lane id=":gneJ13_18_0" index="0" disallow="pedestrian" speed="6.87" length="10.08" width="3.50" shape="488.50,860.75 491.23,860.36 493.19,859.19 494.36,857.23 494.75,854.50"/>
    </edge>
    <edge id=":gneJ13_19" function="internal">
        <lane id=":gneJ13_19_0" index="0" disallow="pedestrian" speed="16.67" length="23.00" width="3.50" shape="488.50,860.75 511.50,860.75"/>
    </edge>
    <edge id=":gneJ13_20" function="internal">
        <lane id=":gneJ13_20_0" index="0" disallow="pedestrian" speed="10.60" length="25.58" width="3.50" shape="488.50,860.75 494.45,862.26 499.84,866.16 503.74,871.55 505.25,877.50"/>
    </edge>
    <edge id=":gneJ13_21" function="internal">
        <lane id=":gneJ13_21_0" index="0" disallow="pedestrian" speed="8.42" length="15.72" width="3.50" shape="488.50,864.25 492.77,863.64 495.81,861.81 497.64,858.77 498.25,854.50"/>
    </edge>
    <edge id=":gneJ13_22" function="internal">
        <lane id=":gneJ13_22_0" index="0" disallow="pedestrian" speed="16.67" length="23.00" width="3.50" shape="488.50,864.25 511.50,864.25"/>
    </edge>
    <edge id=":gneJ13_23" function="internal">
        <lane id=":gneJ13_23_0" index="0" disallow="pedestrian" speed="9.48" length="20.24" width="3.50" shape="488.50,864.25 493.21,865.44 497.47,868.53 500.56,872.79 501.75,877.50"/>
    </edge>
    <edge id=":gneJ2_0" function="internal">
        <lane id=":gneJ2_0_0" index="0" disallow="pedestrian" speed="6.87" length="10.08" width="3.50" shape="255.25,1288.50 255.64,1291.23 256.81,1293.19 258.77,1294.36 261.50,1294.75"/>
    </edge>
    <edge id=":gneJ2_1" function="internal">
        <lane id=":gneJ2_1_0" index="0" disallow="pedestrian" speed="8.42" length="15.72" width="3.50" shape="251.75,1288.50 252.36,1292.77 254.19,1295.81 257.23,1297.64 261.50,1298.25"/>
    </edge>
    <edge id=":gneJ2_2" function="internal">
        <lane id=":gneJ2_2_0" index="0" disallow="pedestrian" speed="6.87" length="10.08" width="3.50" shape="238.50,1294.75 241.23,1294.36 243.19,1293.19 244.36,1291.23 244.75,1288.50"/>
    </edge>
    <edge id=":gneJ2_3" function="internal">
        <lane id=":gneJ2_3_0" index="0" disallow="pedestrian" speed="16.67" length="23.00" width="3.50" shape="238.50,1294.75 261.50,1294.75"/>
    </edge>
    <edge id=":gneJ2_4" function="internal">
        <lane id=":gneJ2_4_0" index="0" disallow="pedestrian" speed="8.42" length="6.53" width="3.50" shape="238.50,1298.25 242.77,1297.64 244.67,1296.50"/>
    </edge>
    <edge id=":gneJ2_5" function="internal">
        <lane id=":gneJ2_5_0" index="0" disallow="pedestrian" speed="16.67" length="23.00" width="3.50" shape="238.50,1298.25 261.50,1298.25"/>
    </edge>
    <edge id=":gneJ2_6" function="internal">
        <lane id=":gneJ2_6_0" index="0" disallow="pedestrian" speed="8.42" length="9.20" width="3.50" shape="244.67,1296.50 245.81,1295.81 247.64,1292.77 248.25,1288.50"/>
    </edge>
    <edge id=":gneJ20_0" function="internal">
        <lane id=":gneJ20_0_0" index="0" disallow="pedestrian" speed="6.08" length="7.66" width="3.50" shape="740.00,1294.75 742.08,1294.45 743.56,1293.56 744.45,1292.08 744.75,1290.00"/>
    </edge>
    <edge id=":gneJ20_1" function="internal">
        <lane id=":gneJ20_1_0" index="0" disallow="pedestrian" speed="7.79" length="13.31" width="3.50" shape="740.00,1298.25 743.61,1297.73 746.19,1296.19 747.73,1293.61 748.25,1290.00"/>
    </edge>
    <edge id=":gneJ30_0" function="internal">
        <lane id=":gneJ30_0_0" index="0" disallow="pedestrian" speed="6.87" length="10.08" width="3.50" shape="11.50,871.25 8.77,871.64 6.81,872.81 5.64,874.77 5.25,877.50"/>
    </edge>
    <edge id=":gneJ30_1" function="internal">
        <lane id=":gneJ30_1_0" index="0" disallow="pedestrian" speed="8.42" length="15.72" width="3.50" shape="11.50,867.75 7.23,868.36 4.19,870.19 2.36,873.23 1.75,877.50"/>
    </edge>
    <edge id=":gneJ30_2" function="internal">
        <lane id=":gneJ30_2_0" index="0" disallow="pedestrian" speed="6.87" length="10.08" width="3.50" shape="5.25,854.50 5.64,857.23 6.81,859.19 8.77,860.36 11.50,860.75"/>
    </edge>
    <edge id=":gneJ30_3" function="internal">
        <lane id=":gneJ30_3_0" index="0" disallow="pedestrian" speed="16.67" length="23.00" width="3.50" shape="5.25,854.50 5.25,877.50"/>
    </edge>
    <edge id=":gneJ30_4" function="internal">
        <lane id=":gneJ30_4_0" index="0" disallow="pedestrian" speed="8.42" length="6.53" width="3.50" shape="1.75,854.50 2.36,858.77 3.50,860.67"/>
    </edge>
    <edge id=":gneJ30_5" function="internal">
        <lane id=":gneJ30_5_0" index="0" disallow="pedestrian" speed="16.67" length="23.00" width="3.50" shape="1.75,854.50 1.75,877.50"/>
    </edge>
    <edge id=":gneJ30_6" function="internal">
        <lane id=":gneJ30_6_0" index="0" disallow="pedestrian" speed="8.42" length="9.20" width="3.50" shape="3.50,860.67 4.19,861.81 7.23,863.64 11.50,864.25"/>
    </edge>
    <edge id=":gneJ31_0" function="internal">
        <lane id=":gneJ31_0_0" index="0" disallow="pedestrian" speed="6.87" length="10.08" width="3.50" shape="244.75,877.50 244.36,874.77 243.19,872.81 241.23,871.64 238.50,871.25"/>
    </edge>
    <edge id=":gneJ31_1" function="internal">
        <lane id=":gneJ31_1_0" index="0" disallow="pedestrian" speed="16.67" length="23.00" width="3.50" shape="244.75,877.50 244.75,854.50"/>
    </edge>
    <edge id=":gneJ31_2" function="internal">
        <lane id=":gneJ31_2_0" index="0" disallow="pedestrian" speed="10.60" length="8.63" width="3.50" shape="244.75,877.50 246.26,871.55 247.72,869.53"/>
    </edge>
    <edge id=":gneJ31_3" function="internal">
        <lane id=":gneJ31_3_0" index="0" disallow="pedestrian" speed="8.42" length="6.53" width="3.50" shape="248.25,877.50 247.64,873.23 246.50,871.33"/>
    </edge>
    <edge id=":gneJ31_4" function="internal">
        <lane id=":gneJ31_4_0" index="0" disallow="pedestrian" speed="16.67" length="23.00" width="3.50" shape="248.25,877.50 248.25,854.50"/>
    </edge>
    <edge id=":gneJ31_5" function="internal">
        <lane id=":gneJ31_5_0" index="0" disallow="pedestrian" speed="9.48" length="5.80" width="3.50" shape="248.25,877.50 249.44,872.79 250.00,872.03"/>
    </edge>
    <edge id=":gneJ31_24" function="internal">
        <lane id=":gneJ31_24_0" index="0" disallow="pedestrian" speed="10.60" length="16.95" width="3.50" shape="247.72,869.53 250.16,866.16 255.55,862.26 261.50,860.75"/>
    </edge>
    <edge id=":gneJ31_25" function="internal">
        <lane id=":gneJ31_25_0" index="0" disallow="pedestrian" speed="8.42" length="9.20" width="3.50" shape="246.50,871.33 245.81,870.19 242.77,868.36 238.50,867.75"/>
    </edge>
    <edge id=":gneJ31_26" function="internal">
        <lane id=":gneJ31_26_0" index="0" disallow="pedestrian" speed="9.48" length="14.43" width="3.50" shape="250.00,872.03 252.53,868.53 256.79,865.44 261.50,864.25"/>
    </edge>
    <edge id=":gneJ31_6" function="internal">
        <lane id=":gneJ31_6_0" index="0" disallow="pedestrian" speed="6.87" length="10.08" width="3.50" shape="261.50,871.25 258.77,871.64 256.81,872.81 255.64,874.77 255.25,877.50"/>
    </edge>
    <edge id=":gneJ31_7" function="internal">
        <lane id=":gneJ31_7_0" index="0" disallow="pedestrian" speed="16.67" length="23.00" width="3.50" shape="261.50,871.25 238.50,871.25"/>
    </edge>
    <edge id=":gneJ31_8" function="internal">
        <lane id=":gneJ31_8_0" index="0" disallow="pedestrian" speed="10.60" length="25.58" width="3.50" shape="261.50,871.25 255.55,869.74 250.16,865.84 246.26,860.45 244.75,854.50"/>
    </edge>
    <edge id=":gneJ31_9" function="internal">
        <lane id=":gneJ31_9_0" index="0" disallow="pedestrian" speed="8.42" length="15.72" width="3.50" shape="261.50,867.75 257.23,868.36 254.19,870.19 252.36,873.23 251.75,877.50"/>
    </edge>
    <edge id=":gneJ31_10" function="internal">
        <lane id=":gneJ31_10_0" index="0" disallow="pedestrian" speed="16.67" length="23.00" width="3.50" shape="261.50,867.75 238.50,867.75"/>
    </edge>
    <edge id=":gneJ31_11" function="internal">
        <lane id=":gneJ31_11_0" index="0" disallow="pedestrian" speed="9.48" length="20.24" width="3.50" shape="261.50,867.75 256.79,866.56 252.53,863.47 249.44,859.21 248.25,854.50"/>
    </edge>
    <edge id=":gneJ31_12" function="internal">
        <lane id=":gneJ31_12_0" index="0" disallow="pedestrian" speed="6.87" length="10.08" width="3.50" shape="255.25,854.50 255.64,857.23 256.81,859.19 258.77,860.36 261.50,860.75"/>
    </edge>
    <edge id=":gneJ31_13" function="internal">
        <lane id=":gneJ31_13_0" index="0" disallow="pedestrian" speed="16.67" length="23.00" width="3.50" shape="255.25,854.50 255.25,877.50"/>
    </edge>
    <edge id=":gneJ31_14" function="internal">
        <lane id=":gneJ31_14_0" index="0" disallow="pedestrian" speed="10.60" length="8.63" width="3.50" shape="255.25,854.50 253.74,860.45 252.28,862.47"/>
    </edge>
    <edge id=":gneJ31_15" function="internal">
        <lane id=":gneJ31_15_0" index="0" disallow="pedestrian" speed="8.42" length="6.53" width="3.50" shape="251.75,854.50 252.36,858.77 253.50,860.67"/>
    </edge>
    <edge id=":gneJ31_16" function="internal">
        <lane id=":gneJ31_16_0" index="0" disallow="pedestrian" speed="16.67" length="23.00" width="3.50" shape="251.75,854.50 251.75,877.50"/>
    </edge>
    <edge id=":gneJ31_17" function="internal">
        <lane id=":gneJ31_17_0" index="0" disallow="pedestrian" speed="9.48" length="5.80" width="3.50" shape="251.75,854.50 250.56,859.21 250.00,859.97"/>
    </edge>
    <edge id=":gneJ31_27" function="internal">
        <lane id=":gneJ31_27_0" index="0" disallow="pedestrian" speed="10.60" length="16.95" width="3.50" shape="252.28,862.47 249.84,865.84 244.45,869.74 238.50,871.25"/>
    </edge>
    <edge id=":gneJ31_28" function="internal">
        <lane id=":gneJ31_28_0" index="0" disallow="pedestrian" speed="8.42" length="9.20" width="3.50" shape="253.50,860.67 254.19,861.81 257.23,863.64 261.50,864.25"/>
    </edge>
    <edge id=":gneJ31_29" function="internal">
        <lane id=":gneJ31_29_0" index="0" disallow="pedestrian" speed="9.48" length="14.43" width="3.50" shape="250.00,859.97 247.47,863.47 243.21,866.56 238.50,867.75"/>
    </edge>
    <edge id=":gneJ31_18" function="internal">
        <lane id=":gneJ31_18_0" index="0" disallow="pedestrian" speed="6.87" length="10.08" width="3.50" shape="238.50,860.75 241.23,860.36 243.19,859.19 244.36,857.23 244.75,854.50"/>
    </edge>
    <edge id=":gneJ31_19" function="internal">
        <lane id=":gneJ31_19_0" index="0" disallow="pedestrian" speed="16.67" length="23.00" width="3.50" shape="238.50,860.75 261.50,860.75"/>
    </edge>
    <edge id=":gneJ31_20" function="internal">
        <lane id=":gneJ31_20_0" index="0" disallow="pedestrian" speed="10.60" length="25.58" width="3.50" shape="238.50,860.75 244.45,862.26 249.84,866.16 253.74,871.55 255.25,877.50"/>
    </edge>
    <edge id=":gneJ31_21" function="internal">
        <lane id=":gneJ31_21_0" index="0" disallow="pedestrian" speed="8.42" length="15.72" width="3.50" shape="238.50,864.25 242.77,863.64 245.81,861.81 247.64,858.77 248.25,854.50"/>
    </edge>
    <edge id=":gneJ31_22" function="internal">
        <lane id=":gneJ31_22_0" index="0" disallow="pedestrian" speed="16.67" length="23.00" width="3.50" shape="238.50,864.25 261.50,864.25"/>
    </edge>
    <edge id=":gneJ31_23" function="internal">
        <lane id=":gneJ31_23_0" index="0" disallow="pedestrian" speed="9.48" length="20.24" width="3.50" shape="238.50,864.25 243.21,865.44 247.47,868.53 250.56,872.79 251.75,877.50"/>
    </edge>
    <edge id=":gneJ37_0" function="internal">
        <lane id=":gneJ37_0_0" index="0" disallow="pedestrian" speed="6.87" length="10.08" width="3.50" shape="494.75,444.50 494.36,441.77 493.19,439.81 491.23,438.64 488.50,438.25"/>
    </edge>
    <edge id=":gneJ37_1" function="internal">
        <lane id=":gneJ37_1_0" index="0" disallow="pedestrian" speed="16.67" length="23.00" width="3.50" shape="494.75,444.50 494.75,421.50"/>
    </edge>
    <edge id=":gneJ37_2" function="internal">
        <lane id=":gneJ37_2_0" index="0" disallow="pedestrian" speed="10.60" length="8.63" width="3.50" shape="494.75,444.50 496.26,438.55 497.72,436.53"/>
    </edge>
    <edge id=":gneJ37_3" function="internal">
        <lane id=":gneJ37_3_0" index="0" disallow="pedestrian" speed="8.42" length="6.53" width="3.50" shape="498.25,444.50 497.64,440.23 496.50,438.33"/>
    </edge>
    <edge id=":gneJ37_4" function="internal">
        <lane id=":gneJ37_4_0" index="0" disallow="pedestrian" speed="16.67" length="23.00" width="3.50" shape="498.25,444.50 498.25,421.50"/>
    </edge>
    <edge id=":gneJ37_5" function="internal">
        <lane id=":gneJ37_5_0" index="0" disallow="pedestrian" speed="9.48" length="5.80" width="3.50" shape="498.25,444.50 499.44,439.79 500.00,439.03"/>
    </edge>
    <edge id=":gneJ37_24" function="internal">
        <lane id=":gneJ37_24_0" index="0" disallow="pedestrian" speed="10.60" length="16.95" width="3.50" shape="497.72,436.53 500.16,433.16 505.55,429.26 511.50,427.75"/>
    </edge>
    <edge id=":gneJ37_25" function="internal">
        <lane id=":gneJ37_25_0" index="0" disallow="pedestrian" speed="8.42" length="9.20" width="3.50" shape="496.50,438.33 495.81,437.19 492.77,435.36 488.50,434.75"/>
    </edge>
    <edge id=":gneJ37_26" function="internal">
        <lane id=":gneJ37_26_0" index="0" disallow="pedestrian" speed="9.48" length="14.43" width="3.50" shape="500.00,439.03 502.53,435.53 506.79,432.44 511.50,431.25"/>
    </edge>
    <edge id=":gneJ37_6" function="internal">
        <lane id=":gneJ37_6_0" index="0" disallow="pedestrian" speed="6.87" length="10.08" width="3.50" shape="511.50,438.25 508.77,438.64 506.81,439.81 505.64,441.77 505.25,444.50"/>
    </edge>
    <edge id=":gneJ37_7" function="internal">
        <lane id=":gneJ37_7_0" index="0" disallow="pedestrian" speed="16.67" length="23.00" width="3.50" shape="511.50,438.25 488.50,438.25"/>
    </edge>
    <edge id=":gneJ37_8" function="internal">
        <lane id=":gneJ37_8_0" index="0" disallow="pedestrian" speed="10.60" length="25.58" width="3.50" shape="511.50,438.25 505.55,436.74 500.16,432.84 496.26,427.45 494.75,421.50"/>
    </edge>
    <edge id=":gneJ37_9" function="internal">
        <lane id=":gneJ37_9_0" index="0" disallow="pedestrian" speed="8.42" length="15.72" width="3.50" shape="511.50,434.75 507.23,435.36 504.19,437.19 502.36,440.23 501.75,444.50"/>
    </edge>
    <edge id=":gneJ37_10" function="internal">
        <lane id=":gneJ37_10_0" index="0" disallow="pedestrian" speed="16.67" length="23.00" width="3.50" shape="511.50,434.75 488.50,434.75"/>
    </edge>
    <edge id=":gneJ37_11" function="internal">
        <lane id=":gneJ37_11_0" index="0" disallow="pedestrian" speed="9.48" length="20.24" width="3.50" shape="511.50,434.75 506.79,433.56 502.53,430.47 499.44,426.21 498.25,421.50"/>
    </edge>
    <edge id=":gneJ37_12" function="internal">
        <lane id=":gneJ37_12_0" index="0" disallow="pedestrian" speed="6.87" length="10.08" width="3.50" shape="505.25,421.50 505.64,424.23 506.81,426.19 508.77,427.36 511.50,427.75"/>
    </edge>
    <edge id=":gneJ37_13" function="internal">
        <lane id=":gneJ37_13_0" index="0" disallow="pedestrian" speed="16.67" length="23.00" width="3.50" shape="505.25,421.50 505.25,444.50"/>
    </edge>
    <edge id=":gneJ37_14" function="internal">
        <lane id=":gneJ37_14_0" index="0" disallow="pedestrian" speed="10.60" length="8.63" width="3.50" shape="505.25,421.50 503.74,427.45 502.28,429.47"/>
    </edge>
    <edge id=":gneJ37_15" function="internal">
        <lane id=":gneJ37_15_0" index="0" disallow="pedestrian" speed="8.42" length="6.53" width="3.50" shape="501.75,421.50 502.36,425.77 503.50,427.67"/>
    </edge>
    <edge id=":gneJ37_16" function="internal">
        <lane id=":gneJ37_16_0" index="0" disallow="pedestrian" speed="16.67" length="23.00" width="3.50" shape="501.75,421.50 501.75,444.50"/>
    </edge>
    <edge id=":gneJ37_17" function="internal">
        <lane id=":gneJ37_17_0" index="0" disallow="pedestrian" speed="9.48" length="5.80" width="3.50" shape="501.75,421.50 500.56,426.21 500.00,426.97"/>
    </edge>
    <edge id=":gneJ37_27" function="internal">
        <lane id=":gneJ37_27_0" index="0" disallow="pedestrian" speed="10.60" length="16.95" width="3.50" shape="502.28,429.47 499.84,432.84 494.45,436.74 488.50,438.25"/>
    </edge>
    <edge id=":gneJ37_28" function="internal">
        <lane id=":gneJ37_28_0" index="0" disallow="pedestrian" speed="8.42" length="9.20" width="3.50" shape="503.50,427.67 504.19,428.81 507.23,430.64 511.50,431.25"/>
    </edge>
    <edge id=":gneJ37_29" function="internal">
        <lane id=":gneJ37_29_0" index="0" disallow="pedestrian" speed="9.48" length="14.43" width="3.50" shape="500.00,426.97 497.47,430.47 493.21,433.56 488.50,434.75"/>
    </edge>
    <edge id=":gneJ37_18" function="internal">
        <lane id=":gneJ37_18_0" index="0" disallow="pedestrian" speed="6.87" length="10.08" width="3.50" shape="488.50,427.75 491.23,427.36 493.19,426.19 494.36,424.23 494.75,421.50"/>
    </edge>
    <edge id=":gneJ37_19" function="internal">
        <lane id=":gneJ37_19_0" index="0" disallow="pedestrian" speed="16.67" length="23.00" width="3.50" shape="488.50,427.75 511.50,427.75"/>
    </edge>
    <edge id=":gneJ37_20" function="internal">
        <lane id=":gneJ37_20_0" index="0" disallow="pedestrian" speed="10.60" length="25.58" width="3.50" shape="488.50,427.75 494.45,429.26 499.84,433.16 503.74,438.55 505.25,444.50"/>
    </edge>
    <edge id=":gneJ37_21" function="internal">
        <lane id=":gneJ37_21_0" index="0" disallow="pedestrian" speed="8.42" length="15.72" width="3.50" shape="488.50,431.25 492.77,430.64 495.81,428.81 497.64,425.77 498.25,421.50"/>
    </edge>
    <edge id=":gneJ37_22" function="internal">
        <lane id=":gneJ37_22_0" index="0" disallow="pedestrian" speed="16.67" length="23.00" width="3.50" shape="488.50,431.25 511.50,431.25"/>
    </edge>
    <edge id=":gneJ37_23" function="internal">
        <lane id=":gneJ37_23_0" index="0" disallow="pedestrian" speed="9.48" length="20.24" width="3.50" shape="488.50,431.25 493.21,432.44 497.47,435.53 500.56,439.79 501.75,444.50"/>
    </edge>
    <edge id=":gneJ38_0" function="internal">
        <lane id=":gneJ38_0_0" index="0" disallow="pedestrian" speed="6.87" length="10.08" width="3.50" shape="244.75,444.50 244.36,441.77 243.19,439.81 241.23,438.64 238.50,438.25"/>
    </edge>
    <edge id=":gneJ38_1" function="internal">
        <lane id=":gneJ38_1_0" index="0" disallow="pedestrian" speed="16.67" length="23.00" width="3.50" shape="244.75,444.50 244.75,421.50"/>
    </edge>
    <edge id=":gneJ38_2" function="internal">
        <lane id=":gneJ38_2_0" index="0" disallow="pedestrian" speed="10.60" length="8.63" width="3.50" shape="244.75,444.50 246.26,438.55 247.72,436.53"/>
    </edge>
    <edge id=":gneJ38_3" function="internal">
        <lane id=":gneJ38_3_0" index="0" disallow="pedestrian" speed="8.42" length="6.53" width="3.50" shape="248.25,444.50 247.64,440.23 246.50,438.33"/>
    </edge>
    <edge id=":gneJ38_4" function="internal">
        <lane id=":gneJ38_4_0" index="0" disallow="pedestrian" speed="16.67" length="23.00" width="3.50" shape="248.25,444.50 248.25,421.50"/>
    </edge>
    <edge id=":gneJ38_5" function="internal">
        <lane id=":gneJ38_5_0" index="0" disallow="pedestrian" speed="9.48" length="5.80" width="3.50" shape="248.25,444.50 249.44,439.79 250.00,439.03"/>
    </edge>
    <edge id=":gneJ38_24" function="internal">
        <lane id=":gneJ38_24_0" index="0" disallow="pedestrian" speed="10.60" length="16.95" width="3.50" shape="247.72,436.53 250.16,433.16 255.55,429.26 261.50,427.75"/>
    </edge>
    <edge id=":gneJ38_25" function="internal">
        <lane id=":gneJ38_25_0" index="0" disallow="pedestrian" speed="8.42" length="9.20" width="3.50" shape="246.50,438.33 245.81,437.19 242.77,435.36 238.50,434.75"/>
    </edge>
    <edge id=":gneJ38_26" function="internal">
        <lane id=":gneJ38_26_0" index="0" disallow="pedestrian" speed="9.48" length="14.43" width="3.50" shape="250.00,439.03 252.53,435.53 256.79,432.44 261.50,431.25"/>
    </edge>
    <edge id=":gneJ38_6" function="internal">
        <lane id=":gneJ38_6_0" index="0" disallow="pedestrian" speed="6.87" length="10.08" width="3.50" shape="261.50,438.25 258.77,438.64 256.81,439.81 255.64,441.77 255.25,444.50"/>
    </edge>
    <edge id=":gneJ38_7" function="internal">
        <lane id=":gneJ38_7_0" index="0" disallow="pedestrian" speed="16.67" length="23.00" width="3.50" shape="261.50,438.25 238.50,438.25"/>
    </edge>
    <edge id=":gneJ38_8" function="internal">
        <lane id=":gneJ38_8_0" index="0" disallow="pedestrian" speed="10.60" length="25.58" width="3.50" shape="261.50,438.25 255.55,436.74 250.16,432.84 246.26,427.45 244.75,421.50"/>
    </edge>
    <edge id=":gneJ38_9" function="internal">
        <lane id=":gneJ38_9_0" index="0" disallow="pedestrian" speed="8.42" length="15.72" width="3.50" shape="261.50,434.75 257.23,435.36 254.19,437.19 252.36,440.23 251.75,444.50"/>
    </edge>
    <edge id=":gneJ38_10" function="internal">
        <lane id=":gneJ38_10_0" index="0" disallow="pedestrian" speed="16.67" length="23.00" width="3.50" shape="261.50,434.75 238.50,434.75"/>
    </edge>
    <edge id=":gneJ38_11" function="internal">