<?xml version="1.0" encoding="UTF-8"?>

<routes xmlns:xsi="http://www.w3.org/2001/XMLSchema-instance" xsi:noNamespaceSchemaLocation="http://sumo.dlr.de/xsd/routes_file.xsd">



   <vehicle id="000" type="VM_standard_car" depart="0.00" departPos="random" departLane="random"> <route edges="up left down"/>  </vehicle>
   <vehicle id="001" type="VM_standard_car" depart="0.00" departPos="random" departLane="random"> <route edges="down right up"/>  </vehicle>
   <vehicle id="002" type="VM_standard_car" depart="0.00" departPos="random" departLane="random"> <route edges="up left down"/>  </vehicle>
   <vehicle id="003" type="VM_standard_car" depart="0.00" departPos="random" departLane="random"> <route edges="down right up"/>  </vehicle>
   <vehicle id="004" type="VM_standard_car" depart="0.00" departPos="random" departLane="random"> <route edges="up left down"/>  </vehicle>
   <vehicle id="005" type="VM_standard_car" depart="0.00" departPos="random" departLane="random"> <route edges="down right up"/>  </vehicle>
   <vehicle id="006" type="VM_standard_car" depart="0.00" departPos="random" departLane="random"> <route edges="up left down"/>  </vehicle>
   <vehicle id="007" type="VM_standard_car" depart="0.00" departPos="random" departLane="random"> <route edges="down right up"/>  </vehicle>
   <vehicle id="008" type="VM_standard_car" depart="0.00" departPos="random" departLane="random"> <route edges="up left down"/>  </vehicle>
   <vehicle id="009" type="VM_standard_car" depart="0.00" departPos="random" departLane="random"> <route edges="down right up"/>  </vehicle>
   <vehicle id="010" type="VM_standard_car" depart="0.00" departPos="random" departLane="random"> <route edges="up left down"/>  </vehicle>
   <vehicle id="011" type="VM_standard_car" depart="0.00" departPos="random" departLane="random"> <route edges="down right up"/>  </vehicle>
   <vehicle id="012" type="VM_standard_car" depart="0.00" departPos="random" departLane="random"> <route edges="up left down"/>  </vehicle>
   <vehicle id="013" type="VM_standard_car" depart="0.00" departPos="random" departLane="random"> <route edges="down right up"/>  </vehicle>
   <vehicle id="014" type="VM_standard_car" depart="0.00" departPos="random" departLane="random"> <route edges="up left down"/>  </vehicle>
   <vehicle id="015" type="VM_standard_car" depart="0.00" departPos="random" departLane="random"> <route edges="down right up"/>  </vehicle>
   <vehicle id="016" type="VM_standard_car" depart="0.00" departPos="random" departLane="random"> <route edges="up left down"/>  </vehicle>
   <vehicle id="017" type="VM_standard_car" depart="0.00" departPos="random" departLane="random"> <route edges="down right up"/>  </vehicle>
   <vehicle id="018" type="VM_standard_car" depart="0.00" departPos="random" departLane="random"> <route edges="up left down"/>  </vehicle>
   <vehicle id="019" type="VM_standard_car" depart="0.00" departPos="random" departLane="random"> <route edges="down right up"/>  </vehicle>
   <vehicle id="020" type="VM_standard_car" depart="0.00" departPos="random" departLane="random"> <route edges="up left down"/>  </vehicle>
   <vehicle id="021" type="VM_standard_car" depart="0.00" departPos="random" departLane="random"> <route edges="down right up"/>  </vehicle>
   <vehicle id="022" type="VM_standard_car" depart="0.00" departPos="random" departLane="random"> <route edges="up left down"/>  </vehicle>
   <vehicle id="023" type="VM_standard_car" depart="0.00" departPos="random" departLane="random"> <route edges="down right up"/>  </vehicle>
   <vehicle id="024" type="VM_standard_car" depart="0.00" departPos="random" departLane="random"> <route edges="up left down"/>  </vehicle>
   <vehicle id="025" type="VM_standard_car" depart="0.00" departPos="random" departLane="random"> <route edges="down right up"/>  </vehicle>
   <vehicle id="026" type="VM_standard_car" depart="0.00" departPos="random" departLane="random"> <route edges="up left down"/>  </vehicle>
   <vehicle id="027" type="VM_standard_car" depart="0.00" departPos="random" departLane="random"> <route edges="down right up"/>  </vehicle>
   <vehicle id="028" type="VM_standard_car" depart="0.00" departPos="random" departLane="random"> <route edges="up left down"/>  </vehicle>
   <vehicle id="029" type="VM_standard_car" depart="0.00" departPos="random" departLane="random"> <route edges="down right up"/>  </vehicle>
   <vehicle id="030" type="VM_standard_car" depart="0.00" departPos="random" departLane="random"> <route edges="up left down"/>  </vehicle>
   <vehicle id="031" type="VM_standard_car" depart="0.00" departPos="random" departLane="random"> <route edges="down right up"/>  </vehicle>
   <vehicle id="032" type="VM_standard_car" depart="0.00" departPos="random" departLane="random"> <route edges="up left down"/>  </vehicle>
   <vehicle id="033" type="VM_standard_car" depart="0.00" departPos="random" departLane="random"> <route edges="down right up"/>  </vehicle>
   <vehicle id="034" type="VM_standard_car" depart="0.00" departPos="random" departLane="random"> <route edges="up left down"/>  </vehicle>
   <vehicle id="035" type="VM_standard_car" depart="0.00" departPos="random" departLane="random"> <route edges="down right up"/>  </vehicle>
   <vehicle id="036" type="VM_standard_car" depart="0.00" departPos="random" departLane="random"> <route edges="up left down"/>  </vehicle>
   <vehicle id="037" type="VM_standard_car" depart="0.00" departPos="random" departLane="random"> <route edges="down right up"/>  </vehicle>
   <vehicle id="038" type="VM_standard_car" depart="0.00" departPos="random" departLane="random"> <route edges="up left down"/>  </vehicle>
   <vehicle id="039" type="VM_standard_car" depart="0.00" departPos="random" departLane="random"> <route edges="down right up"/>  </vehicle>
   <vehicle id="040" type="VM_standard_car" depart="0.00" departPos="random" departLane="random"> <route edges="up left down"/>  </vehicle>
   <vehicle id="041" type="VM_standard_car" depart="0.00" departPos="random" departLane="random"> <route edges="down right up"/>  </vehicle>
   <vehicle id="042" type="VM_standard_car" depart="0.00" departPos="random" departLane="random"> <route edges="up left down"/>  </vehicle>
   <vehicle id="043" type="VM_standard_car" depart="0.00" departPos="random" departLane="random"> <route edges="down right up"/>  </vehicle>
   <vehicle id="044" type="VM_standard_car" depart="0.00" departPos="random" departLane="random"> <route edges="up left down"/>  </vehicle>
   <vehicle id="045" type="VM_standard_car" depart="0.00" departPos="random" departLane="random"> <route edges="down right up"/>  </vehicle>
   <vehicle id="046" type="VM_standard_car" depart="0.00" departPos="random" departLane="random"> <route edges="up left down"/>  </vehicle>
   <vehicle id="047" type="VM_standard_car" depart="0.00" departPos="random" departLane="random"> <route edges="down right up"/>  </vehicle>
   <vehicle id="048" type="VM_standard_car" depart="0.00" departPos="random" departLane="random"> <route edges="up left down"/>  </vehicle>
   <vehicle id="049" type="VM_standard_car" depart="0.00" departPos="random" departLane="random"> <route edges="down right up"/>  </vehicle>
   <vehicle id="050" type="VM_standard_car" depart="0.00" departPos="random" departLane="random"> <route edges="up left down"/>  </vehicle>
   <vehicle id="051" type="VM_standard_car" depart="0.00" departPos="random" departLane="random"> <route edges="down right up"/>  </vehicle>
   <vehicle id="052" type="VM_standard_car" depart="0.00" departPos="random" departLane="random"> <route edges="up left down"/>  </vehicle>
   <vehicle id="053" type="VM_standard_car" depart="0.00" departPos="random" departLane="random"> <route edges="down right up"/>  </vehicle>
   <vehicle id="054" type="VM_standard_car" depart="0.00" departPos="random" departLane="random"> <route edges="up left down"/>  </vehicle>
   <vehicle id="055" type="VM_standard_car" depart="0.00" departPos="random" departLane="random"> <route edges="down right up"/>  </vehicle>
   <vehicle id="056" type="VM_standard_car" depart="0.00" departPos="random" departLane="random"> <route edges="up left down"/>  </vehicle>
   <vehicle id="057" type="VM_standard_car" depart="0.00" departPos="random" departLane="random"> <route edges="down right up"/>  </vehicle>
   <vehicle id="058" type="VM_standard_car" depart="0.00" departPos="random" departLane="random"> <route edges="up left down"/>  </vehicle>
   <vehicle id="059" type="VM_standard_car" depart="0.00" departPos="random" departLane="random"> <route edges="down right up"/>  </vehicle>
   <vehicle id="060" type="VM_standard_car" depart="0.00" departPos="random" departLane="random"> <route edges="up left down"/>  </vehicle>
   <vehicle id="061" type="VM_standard_car" depart="0.00" departPos="random" departLane="random"> <route edges="down right up"/>  </vehicle>
   <vehicle id="062" type="VM_standard_car" depart="0.00" departPos="random" departLane="random"> <route edges="up left down"/>  </vehicle>
   <vehicle id="063" type="VM_standard_car" depart="0.00" departPos="random" departLane="random"> <route edges="down right up"/>  </vehicle>
   <vehicle id="064" type="VM_standard_car" depart="0.00" departPos="random" departLane="random"> <route edges="up left down"/>  </vehicle>
   <vehicle id="065" type="VM_standard_car" depart="0.00" departPos="random" departLane="random"> <route edges="down right up"/>  </vehicle>
   <vehicle id="066" type="VM_standard_car" depart="0.00" departPos="random" departLane="random"> <route edges="up left down"/>  </vehicle>
   <vehicle id="067" type="VM_standard_car" depart="0.00" departPos="random" departLane="random"> <route edges="down right up"/>  </vehicle>
   <vehicle id="068" type="VM_standard_car" depart="0.00" departPos="random" departLane="random"> <route edges="up left down"/>  </vehicle>
   <vehicle id="069" type="VM_standard_car" depart="0.00" departPos="random" departLane="random"> <route edges="down right up"/>  </vehicle>
   <vehicle id="070" type="VM_standard_car" depart="0.00" departPos="random" departLane="random"> <route edges="up left down"/>  </vehicle>
   <vehicle id="071" type="VM_standard_car" depart="0.00" departPos="random" departLane="random"> <route edges="down right up"/>  </vehicle>
   <vehicle id="072" type="VM_standard_car" depart="0.00" departPos="random" departLane="random"> <route edges="up left down"/>  </vehicle>
   <vehicle id="073" type="VM_standard_car" depart="0.00" departPos="random" departLane="random"> <route edges="down right up"/>  </vehicle>
   <vehicle id="074" type="VM_standard_car" depart="0.00" departPos="random" departLane="random"> <route edges="up left down"/>  </vehicle>
   <vehicle id="075" type="VM_standard_car" depart="0.00" departPos="random" departLane="random"> <route edges="down right up"/>  </vehicle>
   <vehicle id="076" type="VM_standard_car" depart="0.00" departPos="random" departLane="random"> <route edges="up left down"/>  </vehicle>
   <vehicle id="077" type="VM_standard_car" depart="0.00" departPos="random" departLane="random"> <route edges="down right up"/>  </vehicle>
   <vehicle id="078" type="VM_standard_car" depart="0.00" departPos="random" departLane="random"> <route edges="up left down"/>  </vehicle>
   <vehicle id="079" type="VM_standard_car" depart="0.00" departPos="random" departLane="random"> <route edges="down right up"/>  </vehicle>
   <vehicle id="080" type="VM_standard_car" depart="0.00" departPos="random" departLane="random"> <route edges="up left down"/>  </vehicle>
   <vehicle id="081" type="VM_standard_car" depart="0.00" departPos="random" departLane="random"> <route edges="down right up"/>  </vehicle>
   <vehicle id="082" type="VM_standard_car" depart="0.00" departPos="random" departLane="random"> <route edges="up left down"/>  </vehicle>
   <vehicle id="083" type="VM_standard_car" depart="0.00" departPos="random" departLane="random"> <route edges="down right up"/>  </vehicle>
   <vehicle id="084" type="VM_standard_car" depart="0.00" departPos="random" departLane="random"> <route edges="up left down"/>  </vehicle>
   <vehicle id="085" type="VM_standard_car" depart="0.00" departPos="random" departLane="random"> <route edges="down right up"/>  </vehicle>
   <vehicle id="086" type="VM_standard_car" depart="0.00" departPos="random" departLane="random"> <route edges="up left down"/>  </vehicle>
   <vehicle id="087" type="VM_standard_car" depart="0.00" departPos="random" departLane="random"> <route edges="down right up"/>  </vehicle>
   <vehicle id="088" type="VM_standard_car" depart="0.00" departPos="random" departLane="random"> <route edges="up left down"/>  </vehicle>
   <vehicle id="089" type="VM_standard_car" depart="0.00" departPos="random" departLane="random"> <route edges="down right up"/>  </vehicle>
   <vehicle id="090" type="VM_standard_car" depart="0.00" departPos="random" departLane="random"> <route edges="up left down"/>  </vehicle>
   <vehicle id="091" type="VM_standard_car" depart="0.00" departPos="random" departLane="random"> <route edges="down right up"/>  </vehicle>
   <vehicle id="092" type="VM_standard_car" depart="0.00" departPos="random" departLane="random"> <route edges="up left down"/>  </vehicle>
   <vehicle id="093" type="VM_standard_car" depart="0.00" departPos="random" departLane="random"> <route edges="down right up"/>  </vehicle>
   <vehicle id="094" type="VM_standard_car" depart="0.00" departPos="random" departLane="random"> <route edges="up left down"/>  </vehicle>
   <vehicle id="095" type="VM_standard_car" depart="0.00" departPos="random" departLane="random"> <route edges="down right up"/>  </vehicle>
   <vehicle id="096" type="VM_standard_car" depart="0.00" departPos="random" departLane="random"> <route edges="up left down"/>  </vehicle>
   <vehicle id="097" type="VM_standard_car" depart="0.00" departPos="random" departLane="random"> <route edges="down right up"/>  </vehicle>
   <vehicle id="098" type="VM_standard_car" depart="0.00" departPos="random" departLane="random"> <route edges="up left down"/>  </vehicle>
   <vehicle id="099" type="VM_standard_car" depart="0.00" departPos="random" departLane="random"> <route edges="down right up"/>  </vehicle>
   <vehicle id="100" type="VM_standard_car" depart="0.00" departPos="random" departLane="random"> <route edges="up left down"/>  </vehicle>
   <vehicle id="101" type="VM_standard_car" depart="0.00" departPos="random" departLane="random"> <route edges="down right up"/>  </vehicle>
   <vehicle id="102" type="VM_standard_car" depart="0.00" departPos="random" departLane="random"> <route edges="up left down"/>  </vehicle>
   <vehicle id="103" type="VM_standard_car" depart="0.00" departPos="random" departLane="random"> <route edges="down right up"/>  </vehicle>
   <vehicle id="104" type="VM_standard_car" depart="0.00" departPos="random" departLane="random"> <route edges="up left down"/>  </vehicle>
   <vehicle id="105" type="VM_standard_car" depart="0.00" departPos="random" departLane="random"> <route edges="down right up"/>  </vehicle>
   <vehicle id="106" type="VM_standard_car" depart="0.00" departPos="random" departLane="random"> <route edges="up left down"/>  </vehicle>
   <vehicle id="107" type="VM_standard_car" depart="0.00" departPos="random" departLane="random"> <route edges="down right up"/>  </vehicle>
   <vehicle id="108" type="VM_standard_car" depart="0.00" departPos="random" departLane="random"> <route edges="up left down"/>  </vehicle>
   <vehicle id="109" type="VM_standard_car" depart="0.00" departPos="random" departLane="random"> <route edges="down right up"/>  </vehicle>
   <vehicle id="110" type="VM_standard_car" depart="0.00" departPos="random" departLane="random"> <route edges="up left down"/>  </vehicle>
   <vehicle id="111" type="VM_standard_car" depart="0.00" departPos="random" departLane="random"> <route edges="down right up"/>  </vehicle>
   <vehicle id="112" type="VM_standard_car" depart="0.00" departPos="random" departLane="random"> <route edges="up left down"/>  </vehicle>
   <vehicle id="113" type="VM_standard_car" depart="0.00" departPos="random" departLane="random"> <route edges="down right up"/>  </vehicle>
   <vehicle id="114" type="VM_standard_car" depart="0.00" departPos="random" departLane="random"> <route edges="up left down"/>  </vehicle>
   <vehicle id="115" type="VM_standard_car" depart="0.00" departPos="random" departLane="random"> <route edges="down right up"/>  </vehicle>
   <vehicle id="116" type="VM_standard_car" depart="0.00" departPos="random" departLane="random"> <route edges="up left down"/>  </vehicle>
   <vehicle id="117" type="VM_standard_car" depart="0.00" departPos="random" departLane="random"> <route edges="down right up"/>  </vehicle>
   <vehicle id="118" type="VM_standard_car" depart="0.00" departPos="random" departLane="random"> <route edges="up left down"/>  </vehicle>
   <vehicle id="119" type="VM_standard_car" depart="0.00" departPos="random" departLane="random"> <route edges="down right up"/>  </vehicle>
   <vehicle id="120" type="VM_standard_car" depart="0.00" departPos="random" departLane="random"> <route edges="up left down"/>  </vehicle>
   <vehicle id="121" type="VM_standard_car" depart="0.00" departPos="random" departLane="random"> <route edges="down right up"/>  </vehicle>
   <vehicle id="122" type="VM_standard_car" depart="0.00" departPos="random" departLane="random"> <route edges="up left down"/>  </vehicle>
   <vehicle id="123" type="VM_standard_car" depart="0.00" departPos="random" departLane="random"> <route edges="down right up"/>  </vehicle>
   <vehicle id="124" type="VM_standard_car" depart="0.00" departPos="random" departLane="random"> <route edges="up left down"/>  </vehicle>
   <vehicle id="125" type="VM_standard_car" depart="0.00" departPos="random" departLane="random"> <route edges="down right up"/>  </vehicle>
   <vehicle id="126" type="VM_standard_car" depart="0.00" departPos="random" departLane="random"> <route edges="up left down"/>  </vehicle>
   <vehicle id="127" type="VM_standard_car" depart="0.00" departPos="random" departLane="random"> <route edges="down right up"/>  </vehicle>
   <vehicle id="128" type="VM_standard_car" depart="0.00" departPos="random" departLane="random"> <route edges="up left down"/>  </vehicle>
   <vehicle id="129" type="VM_standard_car" depart="0.00" departPos="random" departLane="random"> <route edges="down right up"/>  </vehicle>
   <vehicle id="130" type="VM_standard_car" depart="0.00" departPos="random" departLane="random"> <route edges="up left down"/>  </vehicle>
   <vehicle id="131" type="VM_standard_car" depart="0.00" departPos="random" departLane="random"> <route edges="down right up"/>  </vehicle>
   <vehicle id="132" type="VM_standard_car" depart="0.00" departPos="random" departLane="random"> <route edges="up left down"/>  </vehicle>
   <vehicle id="133" type="VM_standard_car" depart="0.00" departPos="random" departLane="random"> <route edges="down right up"/>  </vehicle>
   <vehicle id="134" type="VM_standard_car" depart="0.00" departPos="random" departLane="random"> <route edges="up left down"/>  </vehicle>
   <vehicle id="135" type="VM_standard_car" depart="0.00" departPos="random" departLane="random"> <route edges="down right up"/>  </vehicle>
   <vehicle id="136" type="VM_standard_car" depart="0.00" departPos="random" departLane="random"> <route edges="up left down"/>  </vehicle>
   <vehicle id="137" type="VM_standard_car" depart="0.00" departPos="random" departLane="random"> <route edges="down right up"/>  </vehicle>
   <vehicle id="138" type="VM_standard_car" depart="0.00" departPos="random" departLane="random"> <route edges="up left down"/>  </vehicle>
   <vehicle id="139" type="VM_standard_car" depart="0.00" departPos="random" departLane="random"> <route edges="down right up"/>  </vehicle>
   <vehicle id="140" type="VM_standard_car" depart="0.00" departPos="random" departLane="random"> <route edges="up left down"/>  </vehicle>
   <vehicle id="141" type="VM_standard_car" depart="0.00" departPos="random" departLane="random"> <route edges="down right up"/>  </vehicle>
   <vehicle id="142" type="VM_standard_car" depart="0.00" departPos="random" departLane="random"> <route edges="up left down"/>  </vehicle>
   <vehicle id="143" type="VM_standard_car" depart="0.00" departPos="random" departLane="random"> <route edges="down right up"/>  </vehicle>
   <vehicle id="144" type="VM_standard_car" depart="0.00" departPos="random" departLane="random"> <route edges="up left down"/>  </vehicle>
   <vehicle id="145" type="VM_standard_car" depart="0.00" departPos="random" departLane="random"> <route edges="down right up"/>  </vehicle>
   <vehicle id="146" type="VM_standard_car" depart="0.00" departPos="random" departLane="random"> <route edges="up left down"/>  </vehicle>
   <vehicle id="147" type="VM_standard_car" depart="0.00" departPos="random" departLane="random"> <route edges="down right up"/>  </vehicle>
   <vehicle id="148" type="VM_standard_car" depart="0.00" departPos="random" departLane="random"> <route edges="up left down"/>  </vehicle>
   <vehicle id="149" type="VM_standard_car" depart="0.00" departPos="random" departLane="random"> <route edges="down right up"/>  </vehicle>
   <vehicle id="150" type="VM_standard_car" depart="0.00" departPos="random" departLane="random"> <route edges="up left down"/>  </vehicle>
   <vehicle id="151" type="VM_standard_car" depart="0.00" departPos="random" departLane="random"> <route edges="down right up"/>  </vehicle>
   <vehicle id="152" type="VM_standard_car" depart="0.00" departPos="random" departLane="random"> <route edges="up left down"/>  </vehicle>
   <vehicle id="153" type="VM_standard_car" depart="0.00" departPos="random" departLane="random"> <route edges="down right up"/>  </vehicle>
   <vehicle id="154" type="VM_standard_car" depart="0.00" departPos="random" departLane="random"> <route edges="up left down"/>  </vehicle>
   <vehicle id="155" type="VM_standard_car" depart="0.00" departPos="random" departLane="random"> <route edges="down right up"/>  </vehicle>
   <vehicle id="156" type="VM_standard_car" depart="0.00" departPos="random" departLane="random"> <route edges="up left down"/>  </vehicle>
   <vehicle id="157" type="VM_standard_car" depart="0.00" departPos="random" departLane="random"> <route edges="down right up"/>  </vehicle>
   <vehicle id="158" type="VM_standard_car" depart="0.00" departPos="random" departLane="random"> <route edges="up left down"/>  </vehicle>
   <vehicle id="159" type="VM_standard_car" depart="0.00" departPos="random" departLane="random"> <route edges="down right up"/>  </vehicle>
   <vehicle id="160" type="VM_standard_car" depart="0.00" departPos="random" departLane="random"> <route edges="up left down"/>  </vehicle>
   <vehicle id="161" type="VM_standard_car" depart="0.00" departPos="random" departLane="random"> <route edges="down right up"/>  </vehicle>
   <vehicle id="162" type="VM_standard_car" depart="0.00" departPos="random" departLane="random"> <route edges="up left down"/>  </vehicle>
   <vehicle id="163" type="VM_standard_car" depart="0.00" departPos="random" departLane="random"> <route edges="down right up"/>  </vehicle>
   <vehicle id="164" type="VM_standard_car" depart="0.00" departPos="random" departLane="random"> <route edges="up left down"/>  </vehicle>
   <vehicle id="165" type="VM_standard_car" depart="0.00" departPos="random" departLane="random"> <route edges="down right up"/>  </vehicle>
   <vehicle id="166" type="VM_standard_car" depart="0.00" departPos="random" departLane="random"> <route edges="up left down"/>  </vehicle>
   <vehicle id="167" type="VM_standard_car" depart="0.00" departPos="random" departLane="random"> <route edges="down right up"/>  </vehicle>
   <vehicle id="168" type="VM_standard_car" depart="0.00" departPos="random" departLane="random"> <route edges="up left down"/>  </vehicle>
   <vehicle id="169" type="VM_standard_car" depart="0.00" departPos="random" departLane="random"> <route edges="down right up"/>  </vehicle>
   <vehicle id="170" type="VM_standard_car" depart="0.00" departPos="random" departLane="random"> <route edges="up left down"/>  </vehicle>
   <vehicle id="171" type="VM_standard_car" depart="0.00" departPos="random" departLane="random"> <route edges="down right up"/>  </vehicle>
   <vehicle id="172" type="VM_standard_car" depart="0.00" departPos="random" departLane="random"> <route edges="up left down"/>  </vehicle>
   <vehicle id="173" type="VM_standard_car" depart="0.00" departPos="random" departLane="random"> <route edges="down right up"/>  </vehicle>
   <vehicle id="174" type="VM_standard_car" depart="0.00" departPos="random" departLane="random"> <route edges="up left down"/>  </vehicle>
   <vehicle id="175" type="VM_standard_car" depart="0.00" departPos="random" departLane="random"> <route edges="down right up"/>  </vehicle>
   <vehicle id="176" type="VM_standard_car" depart="0.00" departPos="random" departLane="random"> <route edges="up left down"/>  </vehicle>
   <vehicle id="177" type="VM_standard_car" depart="0.00" departPos="random" departLane="random"> <route edges="down right up"/>  </vehicle>
   <vehicle id="178" type="VM_standard_car" depart="0.00" departPos="random" departLane="random"> <route edges="up left down"/>  </vehicle>
   <vehicle id="179" type="VM_standard_car" depart="0.00" departPos="random" departLane="random"> <route edges="down right up"/>  </vehicle>
   <vehicle id="180" type="VM_standard_car" depart="0.00" departPos="random" departLane="random"> <route edges="up left down"/>  </vehicle>
   <vehicle id="181" type="VM_standard_car" depart="0.00" departPos="random" departLane="random"> <route edges="down right up"/>  </vehicle>
   <vehicle id="182" type="VM_standard_car" depart="0.00" departPos="random" departLane="random"> <route edges="up left down"/>  </vehicle>
   <vehicle id="183" type="VM_standard_car" depart="0.00" departPos="random" departLane="random"> <route edges="down right up"/>  </vehicle>
   <vehicle id="184" type="VM_standard_car" depart="0.00" departPos="random" departLane="random"> <route edges="up left down"/>  </vehicle>
   <vehicle id="185" type="VM_standard_car" depart="0.00" departPos="random" departLane="random"> <route edges="down right up"/>  </vehicle>
   <vehicle id="186" type="VM_standard_car" depart="0.00" departPos="random" departLane="random"> <route edges="up left down"/>  </vehicle>
   <vehicle id="187" type="VM_standard_car" depart="0.00" departPos="random" departLane="random"> <route edges="down right up"/>  </vehicle>
   <vehicle id="188" type="VM_standard_car" depart="0.00" departPos="random" departLane="random"> <route edges="up left down"/>  </vehicle>
   <vehicle id="189" type="VM_standard_car" depart="0.00" departPos="random" departLane="random"> <route edges="down right up"/>  </vehicle>
   <vehicle id="190" type="VM_standard_car" depart="0.00" departPos="random" departLane="random"> <route edges="up left down"/>  </vehicle>
   <vehicle id="191" type="VM_standard_car" depart="0.00" departPos="random" departLane="random"> <route edges="down right up"/>  </vehicle>
   <vehicle id="192" type="VM_standard_car" depart="0.00" departPos="random" departLane="random"> <route edges="up left down"/>  </vehicle>
   <vehicle id="193" type="VM_standard_car" depart="0.00" departPos="random" departLane="random"> <route edges="down right up"/>  </vehicle>
   <vehicle id="194" type="VM_standard_car" depart="0.00" departPos="random" departLane="random"> <route edges="up left down"/>  </vehicle>
   <vehicle id="195" type="VM_standard_car" depart="0.00" departPos="random" departLane="random"> <route edges="down right up"/>  </vehicle>
   <vehicle id="196" type="VM_standard_car" depart="0.00" departPos="random" departLane="random"> <route edges="up left down"/>  </vehicle>
   <vehicle id="197" type="VM_standard_car" depart="0.00" departPos="random" departLane="random"> <route edges="down right up"/>  </vehicle>
   <vehicle id="198" type="VM_standard_car" depart="0.00" departPos="random" departLane="random"> <route edges="up left down"/>  </vehicle>
   <vehicle id="199" type="VM_standard_car" depart="0.00" departPos="random" departLane="random"> <route edges="down right up"/>  </vehicle>
   <vehicle id="200" type="VM_standard_car" depart="0.00" departPos="random" departLane="random"> <route edges="up left down"/>  </vehicle>
   <vehicle id="201" type="VM_standard_car" depart="0.00" departPos="random" departLane="random"> <route edges="down right up"/>  </vehicle>
   <vehicle id="202" type="VM_standard_car" depart="0.00" departPos="random" departLane="random"> <route edges="up left down"/>  </vehicle>
   <vehicle id="203" type="VM_standard_car" depart="0.00" departPos="random" departLane="random"> <route edges="down right up"/>  </vehicle>
   <vehicle id="204" type="VM_standard_car" depart="0.00" departPos="random" departLane="random"> <route edges="up left down"/>  </vehicle>
   <vehicle id="205" type="VM_standard_car" depart="0.00" departPos="random" departLane="random"> <route edges="down right up"/>  </vehicle>
   <vehicle id="206" type="VM_standard_car" depart="0.00" departPos="random" departLane="random"> <route edges="up left down"/>  </vehicle>
   <vehicle id="207" type="VM_standard_car" depart="0.00" departPos="random" departLane="random"> <route edges="down right up"/>  </vehicle>
   <vehicle id="208" type="VM_standard_car" depart="0.00" departPos="random" departLane="random"> <route edges="up left down"/>  </vehicle>
   <vehicle id="209" type="VM_standard_car" depart="0.00" departPos="random" departLane="random"> <route edges="down right up"/>  </vehicle>
   <vehicle id="210" type="VM_standard_car" depart="0.00" departPos="random" departLane="random"> <route edges="up left down"/>  </vehicle>
   <vehicle id="211" type="VM_standard_car" depart="0.00" departPos="random" departLane="random"> <route edges="down right up"/>  </vehicle>