<?xml version="1.0" encoding="UTF-8"?>

<!-- generated on Thu Oct 24 14:27:43 2019 by Eclipse SUMO duarouter Version v1_3_1+0004-4bf5227ace
<configuration xmlns:xsi="http://www.w3.org/2001/XMLSchema-instance" xsi:noNamespaceSchemaLocation="http://sumo.dlr.de/xsd/duarouterConfiguration.xsd">

    <input>
        <net-file value="urban.net.xml"/>
        <additional-files value="vtypes.add.xml"/>
        <route-files value="urban.flows.xml"/>
    </input>

    <output>
        <output-file value="urban.rou.xml"/>
        <vtype-output value="/dev/null"/>
        <alternatives-output value="urban.rou.alt.xml"/>
    </output>

    <processing>
        <randomize-flows value="true"/>
        <routing-threads value="4"/>
        <weights.random-factor value="100"/>
        <routing-algorithm value="astar"/>
    </processing>

</configuration>
-->

<routes xmlns:xsi="http://www.w3.org/2001/XMLSchema-instance" xsi:noNamespaceSchemaLocation="http://sumo.dlr.de/xsd/routes_file.xsd">
   

   <vehicle id="000" type="VM_standard_car" depart="0.00" departPos="random" departLane="random"> <route edges="BD Ds s2 s1 w3 w2 w1 n1 n2 n3 "/>  </vehicle>
   <vehicle id="001" type="VM_standard_car" depart="0.00" departPos="random" departLane="random"> <route edges="e3 s3 s2 sC CA An n2 n3 e1 e2 "/>  </vehicle>
   <vehicle id="002" type="VM_standard_car" depart="0.00" departPos="random" departLane="random"> <route edges="De e3 s3 s2 s1 w3 w2 wA AC cS "/>  </vehicle>
   <vehicle id="003" type="VM_standard_car" depart="0.00" departPos="random" departLane="random"> <route edges="cS s1 w3 w2 w1 n1 n2 n3 e1 e2 "/>  </vehicle>
   <vehicle id="004" type="VM_standard_car" depart="0.00" departPos="random" departLane="random"> <route edges="eD DB Bn n3 e1 eB Bn n3 e1 e2 "/>  </vehicle>
   <vehicle id="005" type="VM_standard_car" depart="0.00" departPos="random" departLane="random"> <route edges="w3 w2 wA AB Be e2 e3 s3 sD DB "/>  </vehicle>
   <vehicle id="006" type="VM_standard_car" depart="0.00" departPos="random" departLane="random"> <route edges="Aw w1 n1 n2 n3 e1 eB BA Aw w1 "/>  </vehicle>
   <vehicle id="007" type="VM_standard_car" depart="0.00" departPos="random" departLane="random"> <route edges="DC CA An n2 n3 e1 e2 e3 s3 sD "/>  </vehicle>
   <vehicle id="008" type="VM_standard_car" depart="0.00" departPos="random" departLane="random"> <route edges="nA AC Cw w2 w1 n1 n2 n3 e1 eB "/>  </vehicle>
   <vehicle id="009" type="VM_standard_car" depart="0.00" departPos="random" departLane="random"> <route edges="n3 e1 eB BA Aw w1 n1 nA AC CD "/>  </vehicle>
   <vehicle id="010" type="VM_standard_car" depart="0.00" departPos="random" departLane="random"> <route edges="e3 s3 s2 sC CA AB Bn n3 e1 e2 "/>  </vehicle>
   <vehicle id="011" type="VM_standard_car" depart="0.00" departPos="random" departLane="random"> <route edges="sD DB Bn n3 e1 e2 eD DC Cw w2 "/>  </vehicle>
   <vehicle id="012" type="VM_standard_car" depart="0.00" departPos="random" departLane="random"> <route edges="e1 e2 e3 s3 s2 s1 w3 wC CA An "/>  </vehicle>
   <vehicle id="013" type="VM_standard_car" depart="0.00" departPos="random" departLane="random"> <route edges="eD DC Cw w2 w1 n1 n2 nB Be e2 "/>  </vehicle>
   <vehicle id="014" type="VM_standard_car" depart="0.00" departPos="random" departLane="random"> <route edges="DC cS s1 w3 wC CD De e3 s3 s2 "/>  </vehicle>
   <vehicle id="015" type="VM_standard_car" depart="0.00" departPos="random" departLane="random"> <route edges="eD DC Cw w2 wA An n2 n3 e1 e2 "/>  </vehicle>
   <vehicle id="016" type="VM_standard_car" depart="0.00" departPos="random" departLane="random"> <route edges="AB Bn n3 e1 e2 e3 s3 s2 sC CA "/>  </vehicle>
   <vehicle id="017" type="VM_standard_car" depart="0.00" departPos="random" departLane="random"> <route edges="s1 w3 w2 w1 n1 n2 nB Be e2 eD "/>  </vehicle>
   <vehicle id="018" type="VM_standard_car" depart="0.00" departPos="random" departLane="random"> <route edges="wA An n2 n3 e1 e2 eD Ds s2 s1 "/>  </vehicle>
   <vehicle id="019" type="VM_standard_car" depart="0.00" departPos="random" departLane="random"> <route edges="CD De e3 s3 sD DC cS s1 w3 w2 "/>  </vehicle>
   <vehicle id="020" type="VM_standard_car" depart="0.00" departPos="random" departLane="random"> <route edges="De e3 s3 sD DC Cw w2 wA AC Cw "/>  </vehicle>
   <vehicle id="021" type="VM_standard_car" depart="0.00" departPos="random" departLane="random"> <route edges="s2 s1 w3 w2 w1 n1 n2 n3 e1 eB "/>  </vehicle>
   <vehicle id="022" type="VM_standard_car" depart="0.00" departPos="random" departLane="random"> <route edges="w1 n1 nA AC cS s1 w3 w2 w1 n1 "/>  </vehicle>
   <vehicle id="023" type="VM_standard_car" depart="0.00" departPos="random" departLane="random"> <route edges="Bn n3 e1 e2 e3 s3 s2 s1 w3 wC "/>  </vehicle>
   <vehicle id="024" type="VM_standard_car" depart="0.00" departPos="random" departLane="random"> <route edges="e1 e2 e3 s3 s2 s1 w3 wC CD Ds "/>  </vehicle>
   <vehicle id="025" type="VM_standard_car" depart="0.00" departPos="random" departLane="random"> <route edges="DB Be e2 e3 s3 sD De e3 s3 s2 "/>  </vehicle>
   <vehicle id="026" type="VM_standard_car" depart="0.00" departPos="random" departLane="random"> <route edges="n2 n3 e1 e2 e3 s3 sD De e3 s3 "/>  </vehicle>
   <vehicle id="027" type="VM_standard_car" depart="0.00" departPos="random" departLane="random"> <route edges="e1 eB Bn n3 e1 e2 e3 s3 s2 s1 "/>  </vehicle>
   <vehicle id="028" type="VM_standard_car" depart="0.00" departPos="random" departLane="random"> <route edges="n2 n3 e1 eB BA AC Cw w2 w1 n1 "/>  </vehicle>
   <vehicle id="029" type="VM_standard_car" depart="0.00" departPos="random" departLane="random"> <route edges="s3 s2 s1 w3 wC CD De e3 s3 sD "/>  </vehicle>
   <vehicle id="030" type="VM_standard_car" depart="0.00" departPos="random" departLane="random"> <route edges="n3 e1 e2 e3 s3 s2 s1 w3 w2 w1 "/>  </vehicle>
   <vehicle id="031" type="VM_standard_car" depart="0.00" departPos="random" departLane="random"> <route edges="De e3 s3 sD DB BA An n2 n3 e1 "/>  </vehicle>
   <vehicle id="032" type="VM_standard_car" depart="0.00" departPos="random" departLane="random"> <route edges="s3 sD DB Bn n3 e1 eB Bn n3 e1 "/>  </vehicle>
   <vehicle id="033" type="VM_standard_car" depart="0.00" departPos="random" departLane="random"> <route edges="w2 wA AB Be e2 e3 s3 s2 sC CD "/>  </vehicle>
   <vehicle id="034" type="VM_standard_car" depart="0.00" departPos="random" departLane="random"> <route edges="DB Bn n3 e1 e2 eD Ds s2 sC CA "/>  </vehicle>
   <vehicle id="035" type="VM_standard_car" depart="0.00" departPos="random" departLane="random"> <route edges="w2 w1 n1 nA AB BD Ds s2 s1 w3 "/>  </vehicle>
   <vehicle id="036" type="VM_standard_car" depart="0.00" departPos="random" departLane="random"> <route edges="n2 nB BD De e3 s3 sD DB Bn n3 "/>  </vehicle>
   <vehicle id="037" type="VM_standard_car" depart="0.00" departPos="random" departLane="random"> <route edges="De e3 s3 sD DC Cw w2 w1 n1 nA "/>  </vehicle>
   <vehicle id="038" type="VM_standard_car" depart="0.00" departPos="random" departLane="random"> <route edges="w3 w2 wA An n2 n3 e1 eB BD Ds "/>  </vehicle>
   <vehicle id="039" type="VM_standard_car" depart="0.00" departPos="random" departLane="random"> <route edges="AC cS s1 w3 wC CD Ds s2 s1 w3 "/>  </vehicle>
   <vehicle id="040" type="VM_standard_car" depart="0.00" departPos="random" departLane="random"> <route edges="eD DC cS s1 w3 w2 wA AB Be e2 "/>  </vehicle>
   <vehicle id="041" type="VM_standard_car" depart="0.00" departPos="random" departLane="random"> <route edges="wA AC CD De e3 s3 sD DC Cw w2 "/>  </vehicle>
   <vehicle id="042" type="VM_standard_car" depart="0.00" departPos="random" departLane="random"> <route edges="AB Bn n3 e1 e2 e3 s3 sD DC Cw "/>  </vehicle>
   <vehicle id="043" type="VM_standard_car" depart="0.00" departPos="random" departLane="random"> <route edges="wC CD DB Bn n3 e1 e2 e3 s3 s2 "/>  </vehicle>
   <vehicle id="044" type="VM_standard_car" depart="0.00" departPos="random" departLane="random"> <route edges="w3 w2 w1 n1 nA AC Cw w2 wA An "/>  </vehicle>
   <vehicle id="045" type="VM_standard_car" depart="0.00" departPos="random" departLane="random"> <route edges="AC cS s1 w3 wC CD Ds s2 sC CA "/>  </vehicle>
   <vehicle id="046" type="VM_standard_car" depart="0.00" departPos="random" departLane="random"> <route edges="s3 s2 sC CA Aw w1 n1 n2 n3 e1 "/>  </vehicle>
   <vehicle id="047" type="VM_standard_car" depart="0.00" departPos="random" departLane="random"> <route edges="w3 w2 w1 n1 n2 nB Be e2 eD Ds "/>  </vehicle>
   <vehicle id="048" type="VM_standard_car" depart="0.00" departPos="random" departLane="random"> <route edges="De e3 s3 s2 s1 w3 w2 w1 n1 nA "/>  </vehicle>
   <vehicle id="049" type="VM_standard_car" depart="0.00" departPos="random" departLane="random"> <route edges="sD De e3 s3 sD DC Cw w2 w1 n1 "/>  </vehicle>
   <vehicle id="050" type="VM_standard_car" depart="0.00" departPos="random" departLane="random"> <route edges="An n2 n3 e1 e2 e3 s3 sD DC cS "/>  </vehicle>
   <vehicle id="051" type="VM_standard_car" depart="0.00" departPos="random" departLane="random"> <route edges="wA AC Cw w2 wA AB Be e2 e3 s3 "/>  </vehicle>
   <vehicle id="052" type="VM_standard_car" depart="0.00" departPos="random" departLane="random"> <route edges="eB Bn n3 e1 eB BA Aw w1 n1 n2 "/>  </vehicle>
   <vehicle id="053" type="VM_standard_car" depart="0.00" departPos="random" departLane="random"> <route edges="cS s1 w3 wC CD Ds s2 s1 w3 wC "/>  </vehicle>
   <vehicle id="054" type="VM_standard_car" depart="0.00" departPos="random" departLane="random"> <route edges="nA AC Cw w2 w1 n1 n2 nB Be e2 "/>  </vehicle>
   <vehicle id="055" type="VM_standard_car" depart="0.00" departPos="random" departLane="random"> <route edges="Cw w2 w1 n1 nA AC CD Ds s2 s1 "/>  </vehicle>
   <vehicle id="056" type="VM_standard_car" depart="0.00" departPos="random" departLane="random"> <route edges="BD DC Cw w2 w1 n1 n2 n3 e1 e2 "/>  </vehicle>
   <vehicle id="057" type="VM_standard_car" depart="0.00" departPos="random" departLane="random"> <route edges="AB Be e2 e3 s3 s2 s1 w3 w2 w1 "/>  </vehicle>
   <vehicle id="058" type="VM_standard_car" depart="0.00" departPos="random" departLane="random"> <route edges="wC CD DB Bn n3 e1 e2 e3 s3 s2 "/>  </vehicle>
   <vehicle id="059" type="VM_standard_car" depart="0.00" departPos="random" departLane="random"> <route edges="wA AB Be e2 e3 s3 s2 sC CA An "/>  </vehicle>
   <vehicle id="060" type="VM_standard_car" depart="0.00" departPos="random" departLane="random"> <route edges="DC cS s1 w3 wC CD De e3 s3 s2 "/>  </vehicle>
   <vehicle id="061" type="VM_standard_car" depart="0.00" departPos="random" departLane="random"> <route edges="Be e2 eD DB Bn n3 e1 e2 eD DC "/>  </vehicle>
   <vehicle id="062" type="VM_standard_car" depart="0.00" departPos="random" departLane="random"> <route edges="Cw w2 w1 n1 n2 nB Be e2 e3 s3 "/>  </vehicle>
   <vehicle id="063" type="VM_standard_car" depart="0.00" departPos="random" departLane="random"> <route edges="Aw w1 n1 nA AC cS s1 w3 w2 w1 "/>  </vehicle>
   <vehicle id="064" type="VM_standard_car" depart="0.00" departPos="random" departLane="random"> <route edges="wA AC cS s1 w3 w2 wA AB Be e2 "/>  </vehicle>
   <vehicle id="065" type="VM_standard_car" depart="0.00" departPos="random" departLane="random"> <route edges="e3 s3 s2 sC CD DB Be e2 eD DB "/>  </vehicle>
   <vehicle id="066" type="VM_standard_car" depart="0.00" departPos="random" departLane="random"> <route edges="e2 eD DC Cw w2 w1 n1 nA Aw w1 "/>  </vehicle>
   <vehicle id="067" type="VM_standard_car" depart="0.00" departPos="random" departLane="random"> <route edges="DB Bn n3 e1 e2 eD Ds s2 s1 w3 "/>  </vehicle>
   <vehicle id="068" type="VM_standard_car" depart="0.00" departPos="random" departLane="random"> <route edges="Cw w2 w1 n1 n2 n3 e1 eB BA An "/>  </vehicle>
   <vehicle id="069" type="VM_standard_car" depart="0.00" departPos="random" departLane="random"> <route edges="e2 e3 s3 s2 s1 w3 wC cS s1 w3 "/>  </vehicle>
   <vehicle id="070" type="VM_standard_car" depart="0.00" departPos="random" departLane="random"> <route edges="An n2 nB BA Aw w1 n1 n2 n3 e1 "/>  </vehicle>
   <vehicle id="071" type="VM_standard_car" depart="0.00" departPos="random" departLane="random"> <route edges="BA AC Cw w2 w1 n1 nA AC cS s1 "/>  </vehicle>
   <vehicle id="072" type="VM_standard_car" depart="0.00" departPos="random" departLane="random"> <route edges="s3 sD DB Be e2 e3 s3 s2 s1 w3 "/>  </vehicle>
   <vehicle id="073" type="VM_standard_car" depart="0.00" departPos="random" departLane="random"> <route edges="AC cS s1 w3 wC CD DB BA Aw w1 "/>  </vehicle>
   <vehicle id="074" type="VM_standard_car" depart="0.00" departPos="random" departLane="random"> <route edges="AC cS s1 w3 wC CD De e3 s3 s2 "/>  </vehicle>
   <vehicle id="075" type="VM_standard_car" depart="0.00" departPos="random" departLane="random"> <route edges="sD DB Bn n3 e1 e2 e3 s3 sD DB "/>  </vehicle>
   <vehicle id="076" type="VM_standard_car" depart="0.00" departPos="random" departLane="random"> <route edges="Be e2 e3 s3 s2 sC CA An n2 n3 "/>  </vehicle>
   <vehicle id="077" type="VM_standard_car" depart="0.00" departPos="random" departLane="random"> <route edges="Cw w2 w1 n1 nA AB BD De e3 s3 "/>  </vehicle>
   <vehicle id="078" type="VM_standard_car" depart="0.00" departPos="random" departLane="random"> <route edges="Ds s2 sC CA An n2 nB Be e2 e3 "/>  </vehicle>
   <vehicle id="079" type="VM_standard_car" depart="0.00" departPos="random" departLane="random"> <route edges="wA An n2 n3 e1 e2 e3 s3 s2 s1 "/>  </vehicle>
   <vehicle id="080" type="VM_standard_car" depart="0.00" departPos="random" departLane="random"> <route edges="Ds s2 s1 w3 w2 wA An n2 n3 e1 "/>  </vehicle>
   <vehicle id="081" type="VM_standard_car" depart="0.00" departPos="random" departLane="random"> <route edges="Cw w2 w1 n1 n2 n3 e1 eB BD De "/>  </vehicle>
   <vehicle id="082" type="VM_standard_car" depart="0.00" departPos="random" departLane="random"> <route edges="AB Bn n3 e1 e2 e3 s3 sD DB Be "/>  </vehicle>
   <vehicle id="083" type="VM_standard_car" depart="0.00" departPos="random" departLane="random"> <route edges="sC CA An n2 n3 e1 eB BA An n2 "/>  </vehicle>
   <vehicle id="084" type="VM_standard_car" depart="0.00" departPos="random" departLane="random"> <route edges="e2 e3 s3 sD DB BA AC cS s1 w3 "/>  </vehicle>
   <vehicle id="085" type="VM_standard_car" depart="0.00" departPos="random" departLane="random"> <route edges="e1 e2 e3 s3 s2 sC CA Aw w1 n1 "/>  </vehicle>
   <vehicle id="086" type="VM_standard_car" depart="0.00" departPos="random" departLane="random"> <route edges="Ds s2 sC Cw w2 w1 n1 n2 n3 e1 "/>  </vehicle>
   <vehicle id="087" type="VM_standard_car" depart="0.00" departPos="random" departLane="random"> <route edges="e1 e2 eD Ds s2 sC CA AB Be e2 "/>  </vehicle>
   <vehicle id="088" type="VM_standard_car" depart="0.00" departPos="random" departLane="random"> <route edges="e1 e2 e3 s3 s2 s1 w3 w2 w1 n1 "/>  </vehicle>
   <vehicle id="089" type="VM_standard_car" depart="0.00" departPos="random" departLane="random"> <route edges="An n2 n3 e1 e2 e3 s3 s2 s1 w3 "/>  </vehicle>
   <vehicle id="090" type="VM_standard_car" depart="0.00" departPos="random" departLane="random"> <route edges="BA Aw w1 n1 n2 n3 e1 e2 eD Ds "/>  </vehicle>
   <vehicle id="091" type="VM_standard_car" depart="0.00" departPos="random" departLane="random"> <route edges="e3 s3 s2 s1 w3 wC cS s1 w3 w2 "/>  </vehicle>
   <vehicle id="092" type="VM_standard_car" depart="0.00" departPos="random" departLane="random"> <route edges="Bn n3 e1 eB Bn n3 e1 e2 eD DB "/>  </vehicle>
   <vehicle id="093" type="VM_standard_car" depart="0.00" departPos="random" departLane="random"> <route edges="e2 e3 s3 s2 sC CA An n2 n3 e1 "/>  </vehicle>
   <vehicle id="094" type="VM_standard_car" depart="0.00" departPos="random" departLane="random"> <route edges="Aw w1 n1 n2 n3 e1 e2 e3 s3 s2 "/>  </vehicle>
   <vehicle id="095" type="VM_standard_car" depart="0.00" departPos="random" departLane="random"> <route edges="e3 s3 s2 sC Cw w2 w1 n1 n2 n3 "/>  </vehicle>
   <vehicle id="096" type="VM_standard_car" depart="0.00" departPos="random" departLane="random"> <route edges="BD De e3 s3 s2 sC CD Ds s2 s1 "/>  </vehicle>
   <vehicle id="097" type="VM_standard_car" depart="0.00" departPos="random" departLane="random"> <route edges="n1 n2 nB BD Ds s2 s1 w3 wC CA "/>  </vehicle>
   <vehicle id="098" type="VM_standard_car" depart="0.00" departPos="random" departLane="random"> <route edges="Aw w1 n1 n2 n3 e1 eB Bn n3 e1 "/>  </vehicle>
   <vehicle id="099" type="VM_standard_car" depart="0.00" departPos="random" departLane="random"> <route edges="w1 n1 n2 n3 e1 eB BA An n2 n3 "/>  </vehicle>
   <vehicle id="100" type="VM_standard_car" depart="0.00" departPos="random" departLane="random"> <route edges="Be e2 e3 s3 sD De e3 s3 s2 sC "/>  </vehicle>
   <vehicle id="101" type="VM_standard_car" depart="0.00" departPos="random" departLane="random"> <route edges="s3 s2 sC CA AB BD Ds s2 s1 w3 "/>  </vehicle>
   <vehicle id="102" type="VM_standard_car" depart="0.00" departPos="random" departLane="random"> <route edges="s1 w3 w2 wA AB Be e2 eD Ds s2 "/>  </vehicle>
   <vehicle id="103" type="VM_standard_car" depart="0.00" departPos="random" departLane="random"> <route edges="Be e2 e3 s3 s2 s1 w3 wC cS s1 "/>  </vehicle>
   <vehicle id="104" type="VM_standard_car" depart="0.00" departPos="random" departLane="random"> <route edges="w3 w2 wA AB Be e2 e3 s3 s2 s1 "/>  </vehicle>
   <vehicle id="105" type="VM_standard_car" depart="0.00" departPos="random" departLane="random"> <route edges="BA Aw w1 n1 n2 n3 e1 e2 e3 s3 "/>  </vehicle>
   <vehicle id="106" type="VM_standard_car" depart="0.00" departPos="random" departLane="random"> <route edges="e2 e3 s3 s2 s1 w3 w2 wA An n2 "/>  </vehicle>
   <vehicle id="107" type="VM_standard_car" depart="0.00" departPos="random" departLane="random"> <route edges="DB Be e2 e3 s3 sD DB BA AC Cw "/>  </vehicle>
   <vehicle id="108" type="VM_standard_car" depart="0.00" departPos="random" departLane="random"> <route edges="eB BD Ds s2 sC Cw w2 w1 n1 n2 "/>  </vehicle>
   <vehicle id="109" type="VM_standard_car" depart="0.00" departPos="random" departLane="random"> <route edges="nA AC CD De e3 s3 s2 s1 w3 w2 "/>  </vehicle>
   <vehicle id="110" type="VM_standard_car" depart="0.00" departPos="random" departLane="random"> <route edges="AB BD Ds s2 s1 w3 w2 wA AC Cw "/>  </vehicle>
   <vehicle id="111" type="VM_standard_car" depart="0.00" departPos="random" departLane="random"> <route edges="s1 w3 w2 wA AC cS s1 w3 w2 w1 "/>  </vehicle>
   <vehicle id="112" type="VM_standard_car" depart="0.00" departPos="random" departLane="random"> <route edges="e1 e2 e3 s3 s2 s1 w3 w2 wA AB "/>  </vehicle>
   <vehicle id="113" type="VM_standard_car" depart="0.00" departPos="random" departLane="random"> <route edges="w1 n1 nA AC Cw w2 wA AB Bn n3 "/>  </vehicle>
   <vehicle id="114" type="VM_standard_car" depart="0.00" departPos="random" departLane="random"> <route edges="wC CA An n2 nB BD Ds s2 s1 w3 "/>  </vehicle>
   <vehicle id="115" type="VM_standard_car" depart="0.00" departPos="random" departLane="random"> <route edges="cS s1 w3 w2 w1 n1 nA AC CD DB "/>  </vehicle>
   <vehicle id="116" type="VM_standard_car" depart="0.00" departPos="random" departLane="random"> <route edges="DC CA AB Be e2 e3 s3 sD DB BA "/>  </vehicle>
   <vehicle id="117" type="VM_standard_car" depart="0.00" departPos="random" departLane="random"> <route edges="sC Cw w2 w1 n1 n2 n3 e1 eB BD "/>  </vehicle>
   <vehicle id="118" type="VM_standard_car" depart="0.00" departPos="random" departLane="random"> <route edges="w2 w1 n1 nA AB BD Ds s2 sC CA "/>  </vehicle>
   <vehicle id="119" type="VM_standard_car" depart="0.00" departPos="random" departLane="random"> <route edges="cS s1 w3 w2 w1 n1 n2 nB BA Aw "/>  </vehicle>
   <vehicle id="120" type="VM_standard_car" depart="0.00" departPos="random" departLane="random"> <route edges="wC CA An n2 nB BD Ds s2 s1 w3 "/>  </vehicle>
   <vehicle id="121" type="VM_standard_car" depart="0.00" departPos="random" departLane="random"> <route edges="Bn n3 e1 eB BA Aw w1 n1 nA AC "/>  </vehicle>
   <vehicle id="122" type="VM_standard_car" depart="0.00" departPos="random" departLane="random"> <route edges="eB BA An n2 n3 e1 eB BA Aw w1 "/>  </vehicle>
   <vehicle id="123" type="VM_standard_car" depart="0.00" departPos="random" departLane="random"> <route edges="CD Ds s2 sC Cw w2 wA AC cS s1 "/>  </vehicle>
   <vehicle id="124" type="VM_standard_car" depart="0.00" departPos="random" departLane="random"> <route edges="w2 w1 n1 n2 n3 e1 eB BA Aw w1 "/>  </vehicle>
   <vehicle id="125" type="VM_standard_car" depart="0.00" departPos="random" departLane="random"> <route edges="w2 wA AB BD Ds s2 sC Cw w2 w1 "/>  </vehicle>
   <vehicle id="126" type="VM_standard_car" depart="0.00" departPos="random" departLane="random"> <route edges="wC cS s1 w3 wC CA An n2 n3 e1 "/>  </vehicle>
   <vehicle id="127" type="VM_standard_car" depart="0.00" departPos="random" departLane="random"> <route edges="n1 nA Aw w1 n1 n2 n3 e1 eB BA "/>  </vehicle>
   <vehicle id="128" type="VM_standard_car" depart="0.00" departPos="random" departLane="random"> <route edges="CD DB Be e2 e3 s3 sD De e3 s3 "/>  </vehicle>
   <vehicle id="129" type="VM_standard_car" depart="0.00" departPos="random" departLane="random"> <route edges="BD Ds s2 sC CA An n2 n3 e1 e2 "/>  </vehicle>
   <vehicle id="130" type="VM_standard_car" depart="0.00" departPos="random" departLane="random"> <route edges="eB BD Ds s2 sC CA Aw w1 n1 n2 "/>  </vehicle>
   <vehicle id="131" type="VM_standard_car" depart="0.00" departPos="random" departLane="random"> <route edges="nB BA Aw w1 n1 n2 nB Be e2 e3 "/>  </vehicle>
   <vehicle id="132" type="VM_standard_car" depart="0.00" departPos="random" departLane="random"> <route edges="sD DB Bn n3 e1 e2 e3 s3 s2 sC "/>  </vehicle>
   <vehicle id="133" type="VM_standard_car" depart="0.00" departPos="random" departLane="random"> <route edges="w3 w2 w1 n1 n2 nB BA AC cS s1 "/>  </vehicle>
   <vehicle id="134" type="VM_standard_car" depart="0.00" departPos="random" departLane="random"> <route edges="An n2 nB Be e2 e3 s3 s2 sC CD "/>  </vehicle>
   <vehicle id="135" type="VM_standard_car" depart="0.00" departPos="random" departLane="random"> <route edges="e2 e3 s3 s2 sC CD DB Be e2 eD "/>  </vehicle>
   <vehicle id="136" type="VM_standard_car" depart="0.00" departPos="random" departLane="random"> <route edges="wC cS s1 w3 wC CD De e3 s3 s2 "/>  </vehicle>
   <vehicle id="137" type="VM_standard_car" depart="0.00" departPos="random" departLane="random"> <route edges="w1 n1 n2 nB BD Ds s2 s1 w3 wC "/>  </vehicle>
   <vehicle id="138" type="VM_standard_car" depart="0.00" departPos="random" departLane="random"> <route edges="BA AC Cw w2 wA An n2 n3 e1 eB "/>  </vehicle>
   <vehicle id="139" type="VM_standard_car" depart="0.00" departPos="random" departLane="random"> <route edges="BD DC cS s1 w3 w2 w1 n1 n2 nB "/>  </vehicle>
   <vehicle id="140" type="VM_standard_car" depart="0.00" departPos="random" departLane="random"> <route edges="wC cS s1 w3 w2 wA An n2 nB Be "/>  </vehicle>
   <vehicle id="141" type="VM_standard_car" depart="0.00" departPos="random" departLane="random"> <route edges="cS s1 w3 wC CD DB Be e2 e3 s3 "/>  </vehicle>
   <vehicle id="142" type="VM_standard_car" depart="0.00" departPos="random" departLane="random"> <route edges="nA Aw w1 n1 n2 nB Be e2 e3 s3 "/>  </vehicle>
   <vehicle id="143" type="VM_standard_car" depart="0.00" departPos="random" departLane="random"> <route edges="e1 eB BD DC Cw w2 w1 n1 n2 n3 "/>  </vehicle>
   <vehicle id="144" type="VM_standard_car" depart="0.00" departPos="random" departLane="random"> <route edges="Ds s2 s1 w3 w2 w1 n1 n2 n3 e1 "/>  </vehicle>
   <vehicle id="145" type="VM_standard_car" depart="0.00" departPos="random" departLane="random"> <route edges="n1 nA AC Cw w2 w1 n1 n2 n3 e1 "/>  </vehicle>
   <vehicle id="146" type="VM_standard_car" depart="0.00" departPos="random" departLane="random"> <route edges="e3 s3 s2 s1 w3 w2 w1 n1 n2 n3 "/>  </vehicle>
   <vehicle id="147" type="VM_standard_car" depart="0.00" departPos="random" departLane="random"> <route edges="wC cS s1 w3 wC cS s1 w3 wC CA "/>  </vehicle>
   <vehicle id="148" type="VM_standard_car" depart="0.00" departPos="random" departLane="random"> <route edges="CD DB BA Aw w1 n1 n2 nB BD De "/>  </vehicle>
   <vehicle id="149" type="VM_standard_car" depart="0.00" departPos="random" departLane="random"> <route edges="CA Aw w1 n1 n2 nB BD DC CA Aw "/>  </vehicle>
   <vehicle id="150" type="VM_standard_car" depart="0.00" departPos="random" departLane="random"> <route edges="e3 s3 s2 sC CD Ds s2 s1 w3 w2 "/>  </vehicle>
   <vehicle id="151" type="VM_standard_car" depart="0.00" departPos="random" departLane="random"> <route edges="s1 w3 w2 wA AB Be e2 e3 s3 s2 "/>  </vehicle>
   <vehicle id="152" type="VM_standard_car" depart="0.00" departPos="random" departLane="random"> <route edges="s3 s2 sC CA An n2 nB BA AC CD "/>  </vehicle>
   <vehicle id="153" type="VM_standard_car" depart="0.00" departPos="random" departLane="random"> <route edges="n3 e1 e2 e3 s3 sD DB Bn n3 e1 "/>  </vehicle>
   <vehicle id="154" type="VM_standard_car" depart="0.00" departPos="random" departLane="random"> <route edges="cS s1 w3 w2 w1 n1 nA AC cS s1 "/>  </vehicle>
   <vehicle id="155" type="VM_standard_car" depart="0.00" departPos="random" departLane="random"> <route edges="w1 n1 n2 n3 e1 e2 e3 s3 s2 s1 "/>  </vehicle>
   <vehicle id="156" type="VM_standard_car" depart="0.00" departPos="random" departLane="random"> <route edges="wA AC cS s1 w3 w2 wA AC cS s1 "/>  </vehicle>
   <vehicle id="157" type="VM_standard_car" depart="0.00" departPos="random" departLane="random"> <route edges="w3 w2 w1 n1 n2 n3 e1 e2 e3 s3 "/>  </vehicle>
   <vehicle id="158" type="VM_standard_car" depart="0.00" departPos="random" departLane="random"> <route edges="s3 s2 s1 w3 wC cS s1 w3 wC CD "/>  </vehicle>
   <vehicle id="159" type="VM_standard_car" depart="0.00" departPos="random" departLane="random"> <route edges="Aw w1 n1 nA AC Cw w2 w1 n1 n2 "/>  </vehicle>
   <vehicle id="160" type="VM_standard_car" depart="0.00" departPos="random" departLane="random"> <route edges="Ds s2 s1 w3 w2 wA An n2 n3 e1 "/>  </vehicle>
   <vehicle id="161" type="VM_standard_car" depart="0.00" departPos="random" departLane="random"> <route edges="n1 n2 n3 e1 e2 eD Ds s2 s1 w3 "/>  </vehicle>
   <vehicle id="162" type="VM_standard_car" depart="0.00" departPos="random" departLane="random"> <route edges="Cw w2 wA AB Be e2 e3 s3 s2 s1 "/>  </vehicle>
   <vehicle id="163" type="VM_standard_car" depart="0.00" departPos="random" departLane="random"> <route edges="s3 sD DB BA An n2 nB BA Aw w1 "/>  </vehicle>
   <vehicle id="164" type="VM_standard_car" depart="0.00" departPos="random" departLane="random"> <route edges="e1 eB BA AC cS s1 w3 wC CD Ds "/>  </vehicle>
   <vehicle id="165" type="VM_standard_car" depart="0.00" departPos="random" departLane="random"> <route edges="De e3 s3 s2 s1 w3 w2 w1 n1 n2 "/>  </vehicle>
   <vehicle id="166" type="VM_standard_car" depart="0.00" departPos="random" departLane="random"> <route edges="Be e2 e3 s3 s2 s1 w3 w2 w1 n1 "/>  </vehicle>
   <vehicle id="167" type="VM_standard_car" depart="0.00" departPos="random" departLane="random"> <route edges="An n2 nB BD Ds s2 sC CA AB BD "/>  </vehicle>
   <vehicle id="168" type="VM_standard_car" depart="0.00" departPos="random" departLane="random"> <route edges="wA AB Be e2 e3 s3 s2 s1 w3 w2 "/>  </vehicle>
   <vehicle id="169" type="VM_standard_car" depart="0.00" departPos="random" departLane="random"> <route edges="wC CD DB BA An n2 n3 e1 e2 e3 "/>  </vehicle>
   <vehicle id="170" type="VM_standard_car" depart="0.00" departPos="random" departLane="random"> <route edges="DC cS s1 w3 wC CA An n2 nB BA "/>  </vehicle>
   <vehicle id="171" type="VM_standard_car" depart="0.00" departPos="random" departLane="random"> <route edges="BD De e3 s3 s2 s1 w3 w2 w1 n1 "/>  </vehicle>
   <vehicle id="172" type="VM_standard_car" depart="0.00" departPos="random" departLane="random"> <route edges="AC Cw w2 w1 n1 nA Aw w1 n1 nA "/>  </vehicle>
   <vehicle id="173" type="VM_standard_car" depart="0.00" departPos="random" departLane="random"> <route edges="cS s1 w3 wC CD De e3 s3 s2 s1 "/>  </vehicle>
   <vehicle id="174" type="VM_standard_car" depart="0.00" departPos="random" departLane="random"> <route edges="Aw w1 n1 n2 n3 e1 e2 eD Ds s2 "/>  </vehicle>
   <vehicle id="175" type="VM_standard_car" depart="0.00" departPos="random" departLane="random"> <route edges="BD DC Cw w2 w1 n1 nA AB Be e2 "/>  </vehicle>
   <vehicle id="176" type="VM_standard_car" depart="0.00" departPos="random" departLane="random"> <route edges="Aw w1 n1 nA AB Be e2 e3 s3 sD "/>  </vehicle>
   <vehicle id="177" type="VM_standard_car" depart="0.00" departPos="random" departLane="random"> <route edges="CD Ds s2 sC Cw w2 w1 n1 n2 nB "/>  </vehicle>
   <vehicle id="178" type="VM_standard_car" depart="0.00" departPos="random" departLane="random"> <route edges="DB Bn n3 e1 eB BD Ds s2 sC Cw "/>  </vehicle>
   <vehicle id="179" type="VM_standard_car" depart="0.00" departPos="random" departLane="random"> <route edges="cS s1 w3 w2 wA An n2 nB BD DC "/>  </vehicle>
   <vehicle id="180" type="VM_standard_car" depart="0.00" departPos="random" departLane="random"> <route edges="s2 s1 w3 w2 wA An n2 n3 e1 e2 "/>  </vehicle>
   <vehicle id="181" type="VM_standard_car" depart="0.00" departPos="random" departLane="random"> <route edges="Be e2 e3 s3 sD DB Bn n3 e1 eB "/>  </vehicle>
   <vehicle id="182" type="VM_standard_car" depart="0.00" departPos="random" departLane="random"> <route edges="AC Cw w2 w1 n1 nA AB Bn n3 e1 "/>  </vehicle>